download/pglib-opf-master/api/pglib_opf_case4661_sdet__api.m
%%%%%%%%%%%%%%%%%%%%%%%%%%%%%%%%%%%%%%%%%%%%%%%%%%%%%%%%%%%%%%%%%%%%%%%%%%%
%%%%                                                                  %%%%%
%%%%    IEEE PES Power Grid Library - Optimal Power Flow - v19.05     %%%%%
%%%%          (https://github.com/power-grid-lib/pglib-opf)           %%%%%
%%%%             Benchmark Group - Active Power Increase              %%%%%
%%%%                         08 - May - 2019                          %%%%%
%%%%                                                                  %%%%%
%%%%%%%%%%%%%%%%%%%%%%%%%%%%%%%%%%%%%%%%%%%%%%%%%%%%%%%%%%%%%%%%%%%%%%%%%%%
function mpc = pglib_opf_case4661_sdet__api
mpc.version = '2';
mpc.baseMVA = 100.0;

%% bus data
%	bus_i	type	Pd	Qd	Gs	Bs	area	Vm	Va	baseKV	zone	Vmax	Vmin
mpc.bus = [
	1	 2	 0.0	 0.0	 0.0	 0.0	 1	    1.00000	    0.00000	 345.0	 1	    1.10000	    0.90000;
	2	 2	 0.0	 0.0	 0.0	 0.0	 1	    1.00000	    0.00000	 345.0	 1	    1.10000	    0.90000;
	3	 2	 0.0	 0.0	 0.0	 0.0	 1	    1.00000	    0.00000	 345.0	 1	    1.10000	    0.90000;
	4	 1	 122.88	 50.37	 0.0	 0.0	 1	    1.00000	    0.00000	 345.0	 1	    1.10000	    0.90000;
	5	 2	 0.0	 0.0	 0.0	 0.0	 1	    1.00000	    0.00000	 345.0	 1	    1.10000	    0.90000;
	6	 1	 0.0	 0.0	 0.0	 0.0	 1	    1.00000	    0.00000	 345.0	 1	    1.10000	    0.90000;
	7	 1	 0.0	 0.0	 0.0	 0.0	 1	    1.00000	    0.00000	 345.0	 1	    1.10000	    0.90000;
	8	 1	 0.0	 0.0	 0.0	 0.0	 1	    1.00000	    0.00000	 345.0	 1	    1.10000	    0.90000;
	9	 1	 126.73	 39.67	 0.0	 0.0	 1	    1.00000	    0.00000	 345.0	 1	    1.10000	    0.90000;
	10	 2	 0.0	 0.0	 0.0	 0.0	 1	    1.00000	    0.00000	 345.0	 1	    1.10000	    0.90000;
	11	 1	 0.0	 0.0	 0.0	 0.0	 1	    1.00000	    0.00000	 345.0	 1	    1.10000	    0.90000;
	12	 2	 9.39	 20.00	 0.0	 0.0	 1	    1.00000	    0.00000	 345.0	 1	    1.10000	    0.90000;
	13	 2	 9.51	 20.00	 0.0	 0.0	 1	    1.00000	    0.00000	 345.0	 1	    1.10000	    0.90000;
	14	 1	 0.0	 0.0	 0.0	 0.0	 1	    1.00000	    0.00000	 345.0	 1	    1.10000	    0.90000;
	15	 2	 0.00	 -13.01	 0.0	 0.0	 1	    1.00000	    0.00000	 345.0	 1	    1.10000	    0.90000;
	16	 1	 0.0	 0.0	 0.0	 0.0	 1	    1.00000	    0.00000	 345.0	 1	    1.10000	    0.90000;
	17	 1	 0.0	 0.0	 0.0	 94.26	 1	    1.00000	    0.00000	 345.0	 1	    1.10000	    0.90000;
	18	 2	 14.63	 30.00	 0.0	 0.0	 1	    1.00000	    0.00000	 345.0	 1	    1.10000	    0.90000;
	19	 2	 29.01	 60.00	 0.0	 0.0	 1	    1.00000	    0.00000	 345.0	 1	    1.10000	    0.90000;
	20	 2	 46.32	 64.00	 0.0	 0.0	 1	    1.00000	    0.00000	 500.0	 1	    1.10000	    0.90000;
	21	 1	 175.56	 -19.75	 0.0	 0.0	 1	    1.00000	    0.00000	 345.0	 1	    1.10000	    0.90000;
	22	 1	 0.0	 0.0	 0.0	 0.0	 1	    1.00000	    0.00000	 345.0	 1	    1.10000	    0.90000;
	23	 1	 0.0	 0.0	 0.0	 0.0	 1	    1.00000	    0.00000	 345.0	 1	    1.10000	    0.90000;
	24	 2	 0.0	 0.0	 0.0	 168.92	 1	    1.00000	    0.00000	 500.0	 1	    1.10000	    0.90000;
	25	 2	 0.0	 0.0	 0.0	 -33.19	 1	    1.00000	    0.00000	 345.0	 1	    1.10000	    0.90000;
	26	 1	 124.91	 53.02	 0.0	 0.0	 1	    1.00000	    0.00000	 345.0	 1	    1.10000	    0.90000;
	27	 1	 0.0	 0.0	 0.0	 0.0	 1	    1.00000	    0.00000	 345.0	 1	    1.10000	    0.90000;
	28	 1	 0.0	 0.0	 0.0	 0.0	 1	    1.00000	    0.00000	 345.0	 1	    1.10000	    0.90000;
	29	 1	 33.71	 -15.57	 0.0	 0.0	 1	    1.00000	    0.00000	 345.0	 1	    1.10000	    0.90000;
	30	 1	 0.0	 0.0	 0.0	 0.0	 1	    1.00000	    0.00000	 345.0	 1	    1.10000	    0.90000;
	31	 1	 0.0	 0.0	 0.0	 0.0	 1	    1.00000	    0.00000	 345.0	 1	    1.10000	    0.90000;
	32	 2	 0.0	 0.0	 0.0	 118.65	 1	    1.00000	    0.00000	 500.0	 1	    1.10000	    0.90000;
	33	 1	 0.0	 0.0	 0.0	 0.0	 1	    1.00000	    0.00000	 345.0	 1	    1.10000	    0.90000;
	34	 1	 0.0	 0.0	 0.0	 0.0	 1	    1.00000	    0.00000	 345.0	 1	    1.10000	    0.90000;
	35	 1	 0.0	 0.0	 0.0	 0.0	 1	    1.00000	    0.00000	 345.0	 1	    1.10000	    0.90000;
	36	 1	 0.0	 0.0	 0.0	 -16.94	 1	    1.00000	    0.00000	 345.0	 1	    1.10000	    0.90000;
	37	 1	 70.55	 42.37	 0.0	 2.23	 1	    1.00000	    0.00000	 345.0	 1	    1.10000	    0.90000;
	38	 1	 0.0	 0.0	 0.0	 5.87	 1	    1.00000	    0.00000	 345.0	 1	    1.10000	    0.90000;
	39	 1	 0.0	 0.0	 0.0	 2.56	 1	    1.00000	    0.00000	 345.0	 1	    1.10000	    0.90000;
	40	 1	 0.0	 0.0	 0.0	 6.7	 1	    1.00000	    0.00000	 345.0	 1	    1.10000	    0.90000;
	41	 1	 0.0	 0.0	 0.0	 40.02	 1	    1.00000	    0.00000	 16.0	 1	    1.10000	    0.90000;
	42	 1	 6.97	 1.60	 0.0	 0.0	 1	    1.00000	    0.00000	 138.0	 1	    1.10000	    0.90000;
	43	 1	 4.69	 1.40	 0.0	 0.0	 1	    1.00000	    0.00000	 138.0	 1	    1.10000	    0.90000;
	44	 2	 65.54	 21.02	 0.0	 0.0	 1	    1.00000	    0.00000	 138.0	 1	    1.10000	    0.90000;
	45	 2	 93.93	 34.03	 0.0	 0.0	 1	    1.00000	    0.00000	 138.0	 1	    1.10000	    0.90000;
	46	 1	 4.57	 0.50	 0.0	 0.0	 1	    1.00000	    0.00000	 138.0	 1	    1.10000	    0.90000;
	47	 1	 0.0	 0.0	 0.0	 0.0	 1	    1.00000	    0.00000	 138.0	 1	    1.10000	    0.90000;
	48	 1	 8.06	 1.30	 0.0	 0.0	 1	    1.00000	    0.00000	 138.0	 1	    1.10000	    0.90000;
	49	 1	 6.73	 0.60	 0.0	 0.0	 1	    1.00000	    0.00000	 138.0	 1	    1.10000	    0.90000;
	50	 1	 5.05	 0.60	 0.0	 0.0	 1	    1.00000	    0.00000	 138.0	 1	    1.10000	    0.90000;
	51	 1	 0.0	 0.0	 0.0	 0.0	 1	    1.00000	    0.00000	 138.0	 1	    1.10000	    0.90000;
	52	 1	 7.57	 1.20	 0.0	 0.0	 1	    1.00000	    0.00000	 138.0	 1	    1.10000	    0.90000;
	53	 1	 10.58	 1.60	 0.0	 0.0	 1	    1.00000	    0.00000	 138.0	 1	    1.10000	    0.90000;
	54	 1	 4.81	 0.20	 0.0	 0.0	 1	    1.00000	    0.00000	 138.0	 1	    1.10000	    0.90000;
	55	 1	 33.76	 7.77	 0.0	 0.0	 1	    1.00000	    0.00000	 138.0	 1	    1.10000	    0.90000;
	56	 1	 0.0	 0.0	 0.0	 0.0	 1	    1.00000	    0.00000	 138.0	 1	    1.10000	    0.90000;
	57	 1	 9.98	 1.80	 0.0	 0.0	 1	    1.00000	    0.00000	 138.0	 1	    1.10000	    0.90000;
	58	 1	 0.0	 0.0	 0.0	 0.0	 1	    1.00000	    0.00000	 138.0	 1	    1.10000	    0.90000;
	59	 2	 7.34	 2.70	 0.0	 0.0	 1	    1.00000	    0.00000	 138.0	 1	    1.10000	    0.90000;
	60	 1	 9.62	 0.20	 0.0	 0.0	 1	    1.00000	    0.00000	 138.0	 1	    1.10000	    0.90000;
	61	 1	 0.0	 0.0	 0.0	 0.0	 1	    1.00000	    0.00000	 138.0	 1	    1.10000	    0.90000;
	62	 1	 4.45	 1.20	 0.0	 0.0	 1	    1.00000	    0.00000	 138.0	 1	    1.10000	    0.90000;
	63	 1	 28.05	 3.27	 0.0	 0.0	 1	    1.00000	    0.00000	 138.0	 1	    1.10000	    0.90000;
	64	 2	 2.71	 0.71	 0.0	 -34.1	 1	    1.00000	    0.00000	 138.0	 1	    1.10000	    0.90000;
	65	 1	 2.79	 0.33	 0.0	 0.0	 1	    1.00000	    0.00000	 138.0	 1	    1.10000	    0.90000;
	66	 1	 2.54	 0.84	 0.0	 7.69	 1	    1.00000	    0.00000	 138.0	 1	    1.10000	    0.90000;
	67	 1	 6.73	 1.36	 0.0	 0.0	 1	    1.00000	    0.00000	 138.0	 1	    1.10000	    0.90000;
	68	 1	 82.43	 25.33	 0.0	 0.0	 1	    1.00000	    0.00000	 138.0	 1	    1.10000	    0.90000;
	69	 1	 8.00	 2.09	 0.0	 0.0	 1	    1.00000	    0.00000	 138.0	 1	    1.10000	    0.90000;
	70	 1	 53.26	 -14.07	 0.0	 0.0	 1	    1.00000	    0.00000	 138.0	 1	    1.10000	    0.90000;
	71	 1	 135.16	 66.23	 0.0	 0.0	 1	    1.00000	    0.00000	 138.0	 1	    1.10000	    0.90000;
	72	 1	 0.0	 0.0	 0.0	 0.0	 1	    1.00000	    0.00000	 138.0	 1	    1.10000	    0.90000;
	73	 1	 15.24	 2.20	 0.0	 0.0	 1	    1.00000	    0.00000	 138.0	 1	    1.10000	    0.90000;
	74	 1	 9.64	 1.37	 0.0	 0.0	 1	    1.00000	    0.00000	 138.0	 1	    1.10000	    0.90000;
	75	 1	 29.74	 10.74	 0.0	 0.0	 1	    1.00000	    0.00000	 138.0	 1	    1.10000	    0.90000;
	76	 1	 20.66	 4.84	 0.0	 0.0	 1	    1.00000	    0.00000	 138.0	 1	    1.10000	    0.90000;
	77	 1	 8.87	 2.63	 0.0	 0.0	 1	    1.00000	    0.00000	 138.0	 1	    1.10000	    0.90000;
	78	 1	 0.0	 0.0	 0.0	 0.0	 1	    1.00000	    0.00000	 138.0	 1	    1.10000	    0.90000;
	79	 1	 19.97	 4.42	 0.0	 0.0	 1	    1.00000	    0.00000	 138.0	 1	    1.10000	    0.90000;
	80	 2	 1.22	 3.00	 0.0	 0.0	 1	    1.00000	    0.00000	 138.0	 1	    1.10000	    0.90000;
	81	 1	 0.0	 0.0	 0.0	 0.0	 1	    1.00000	    0.00000	 138.0	 1	    1.10000	    0.90000;
	82	 2	 3.68	 1.89	 0.0	 -5.96	 1	    1.00000	    0.00000	 138.0	 1	    1.10000	    0.90000;
	83	 1	 8.37	 3.68	 0.0	 0.0	 1	    1.00000	    0.00000	 138.0	 1	    1.10000	    0.90000;
	84	 2	 4.06	 0.71	 0.0	 0.0	 1	    1.00000	    0.00000	 138.0	 1	    1.10000	    0.90000;
	85	 2	 19.23	 30.64	 0.0	 0.0	 1	    1.00000	    0.00000	 138.0	 1	    1.10000	    0.90000;
	86	 1	 22.85	 5.96	 0.0	 3.89	 1	    1.00000	    0.00000	 138.0	 1	    1.10000	    0.90000;
	87	 1	 279.48	 29.74	 0.0	 -60.0	 1	    1.00000	    0.00000	 138.0	 1	    1.10000	    0.90000;
	88	 1	 13.97	 3.77	 0.0	 0.0	 1	    1.00000	    0.00000	 138.0	 1	    1.10000	    0.90000;
	89	 1	 15.36	 5.64	 0.0	 0.0	 1	    1.00000	    0.00000	 138.0	 1	    1.10000	    0.90000;
	90	 1	 28.10	 -1.93	 0.0	 0.0	 1	    1.00000	    0.00000	 138.0	 1	    1.10000	    0.90000;
	91	 1	 12.30	 5.57	 0.0	 0.0	 1	    1.00000	    0.00000	 138.0	 1	    1.10000	    0.90000;
	92	 1	 0.0	 0.0	 0.0	 0.0	 1	    1.00000	    0.00000	 138.0	 1	    1.10000	    0.90000;
	93	 1	 6.34	 1.47	 0.0	 0.0	 1	    1.00000	    0.00000	 138.0	 1	    1.10000	    0.90000;
	94	 1	 45.72	 -10.43	 0.0	 0.0	 1	    1.00000	    0.00000	 138.0	 1	    1.10000	    0.90000;
	95	 1	 0.0	 0.0	 0.0	 0.0	 1	    1.00000	    0.00000	 138.0	 1	    1.10000	    0.90000;
	96	 1	 0.0	 0.0	 0.0	 0.0	 1	    1.00000	    0.00000	 138.0	 1	    1.10000	    0.90000;
	97	 1	 4.31	 0.21	 0.0	 0.0	 1	    1.00000	    0.00000	 138.0	 1	    1.10000	    0.90000;
	98	 2	 5.36	 5.71	 0.0	 0.0	 1	    1.00000	    0.00000	 138.0	 1	    1.10000	    0.90000;
	99	 2	 7.72	 5.23	 0.0	 12.01	 1	    1.00000	    0.00000	 138.0	 1	    1.10000	    0.90000;
	100	 1	 18.49	 4.72	 0.0	 0.0	 1	    1.00000	    0.00000	 138.0	 1	    1.10000	    0.90000;
	101	 1	 15.92	 4.72	 0.0	 0.0	 1	    1.00000	    0.00000	 138.0	 1	    1.10000	    0.90000;
	102	 1	 0.0	 0.0	 0.0	 0.0	 1	    1.00000	    0.00000	 138.0	 1	    1.10000	    0.90000;
	103	 1	 29.57	 11.73	 0.0	 0.0	 1	    1.00000	    0.00000	 138.0	 1	    1.10000	    0.90000;
	104	 1	 11.52	 4.22	 0.0	 -3.12	 1	    1.00000	    0.00000	 138.0	 1	    1.10000	    0.90000;
	105	 1	 10.90	 4.02	 0.0	 0.0	 1	    1.00000	    0.00000	 138.0	 1	    1.10000	    0.90000;
	106	 1	 11.88	 5.12	 0.0	 0.0	 1	    1.00000	    0.00000	 138.0	 1	    1.10000	    0.90000;
	107	 1	 6.74	 2.01	 0.0	 0.0	 1	    1.00000	    0.00000	 138.0	 1	    1.10000	    0.90000;
	108	 1	 6.36	 1.91	 0.0	 0.0	 1	    1.00000	    0.00000	 138.0	 1	    1.10000	    0.90000;
	109	 1	 14.72	 3.61	 0.0	 0.0	 1	    1.00000	    0.00000	 138.0	 1	    1.10000	    0.90000;
	110	 2	 29.55	 1.56	 0.0	 0.0	 1	    1.00000	    0.00000	 138.0	 1	    1.10000	    0.90000;
	111	 1	 12.13	 2.41	 0.0	 0.0	 1	    1.00000	    0.00000	 138.0	 1	    1.10000	    0.90000;
	112	 1	 155.37	 30.18	 0.0	 0.0	 1	    1.00000	    0.00000	 138.0	 1	    1.10000	    0.90000;
	113	 2	 0.0	 0.0	 0.0	 0.0	 1	    1.00000	    0.00000	 138.0	 1	    1.10000	    0.90000;
	114	 1	 0.0	 0.0	 0.0	 0.0	 1	    1.00000	    0.00000	 138.0	 1	    1.10000	    0.90000;
	115	 2	 8.81	 2.61	 0.0	 0.0	 1	    1.00000	    0.00000	 138.0	 1	    1.10000	    0.90000;
	116	 1	 8.69	 2.61	 0.0	 0.0	 1	    1.00000	    0.00000	 138.0	 1	    1.10000	    0.90000;
	117	 1	 10.90	 2.71	 0.0	 0.0	 1	    1.00000	    0.00000	 138.0	 1	    1.10000	    0.90000;
	118	 1	 7.23	 1.41	 0.0	 0.0	 1	    1.00000	    0.00000	 138.0	 1	    1.10000	    0.90000;
	119	 1	 0.0	 0.0	 0.0	 45.0	 1	    1.00000	    0.00000	 16.0	 1	    1.10000	    0.90000;
	120	 2	 31.96	 20.39	 0.0	 0.0	 1	    1.00000	    0.00000	 138.0	 1	    1.10000	    0.90000;
	121	 1	 26.94	 -4.46	 0.0	 0.0	 1	    1.00000	    0.00000	 138.0	 1	    1.10000	    0.90000;
	122	 1	 3.80	 1.41	 0.0	 0.0	 1	    1.00000	    0.00000	 138.0	 1	    1.10000	    0.90000;
	123	 1	 0.0	 0.0	 0.0	 0.0	 1	    1.00000	    0.00000	 138.0	 1	    1.10000	    0.90000;
	124	 2	 0.0	 0.0	 0.0	 0.0	 1	    1.00000	    0.00000	 138.0	 1	    1.10000	    0.90000;
	125	 1	 10.77	 2.91	 0.0	 0.0	 1	    1.00000	    0.00000	 138.0	 1	    1.10000	    0.90000;
	126	 1	 6.61	 2.31	 0.0	 0.0	 1	    1.00000	    0.00000	 138.0	 1	    1.10000	    0.90000;
	127	 1	 5.75	 2.11	 0.0	 0.0	 1	    1.00000	    0.00000	 138.0	 1	    1.10000	    0.90000;
	128	 2	 11.52	 3.71	 0.0	 0.0	 1	    1.00000	    0.00000	 138.0	 1	    1.10000	    0.90000;
	129	 1	 15.92	 4.22	 0.0	 0.0	 1	    1.00000	    0.00000	 138.0	 1	    1.10000	    0.90000;
	130	 1	 11.02	 5.52	 0.0	 0.0	 1	    1.00000	    0.00000	 138.0	 1	    1.10000	    0.90000;
	131	 1	 17.05	 11.80	 0.0	 0.0	 1	    1.00000	    0.00000	 138.0	 1	    1.10000	    0.90000;
	132	 2	 14.70	 9.44	 0.0	 0.0	 1	    1.00000	    0.00000	 138.0	 1	    1.10000	    0.90000;
	133	 2	 0.0	 0.0	 0.0	 0.0	 1	    1.00000	    0.00000	 138.0	 1	    1.10000	    0.90000;
	134	 1	 10.90	 3.82	 0.0	 0.0	 1	    1.00000	    0.00000	 138.0	 1	    1.10000	    0.90000;
	135	 1	 13.47	 3.72	 0.0	 0.0	 1	    1.00000	    0.00000	 138.0	 1	    1.10000	    0.90000;
	136	 2	 13.47	 3.86	 0.0	 -1.17	 1	    1.00000	    0.00000	 138.0	 1	    1.10000	    0.90000;
	137	 1	 4.66	 1.00	 0.0	 0.0	 1	    1.00000	    0.00000	 138.0	 1	    1.10000	    0.90000;
	138	 1	 24.87	 6.83	 0.0	 0.0	 1	    1.00000	    0.00000	 138.0	 1	    1.10000	    0.90000;
	139	 1	 11.52	 3.11	 0.0	 0.0	 1	    1.00000	    0.00000	 138.0	 1	    1.10000	    0.90000;
	140	 1	 0.0	 0.0	 0.0	 0.0	 1	    1.00000	    0.00000	 138.0	 1	    1.10000	    0.90000;
	141	 1	 12.74	 5.22	 0.0	 0.0	 1	    1.00000	    0.00000	 138.0	 1	    1.10000	    0.90000;
	142	 1	 5.75	 2.11	 0.0	 0.0	 1	    1.00000	    0.00000	 138.0	 1	    1.10000	    0.90000;
	143	 1	 8.32	 2.31	 0.0	 0.0	 1	    1.00000	    0.00000	 138.0	 1	    1.10000	    0.90000;
	144	 1	 17.35	 -0.23	 0.0	 0.0	 1	    1.00000	    0.00000	 138.0	 1	    1.10000	    0.90000;
	145	 1	 15.55	 4.32	 0.0	 0.0	 1	    1.00000	    0.00000	 138.0	 1	    1.10000	    0.90000;
	146	 1	 0.0	 0.0	 0.0	 0.0	 1	    1.00000	    0.00000	 138.0	 1	    1.10000	    0.90000;
	147	 2	 20.45	 6.33	 0.0	 0.0	 1	    1.00000	    0.00000	 138.0	 1	    1.10000	    0.90000;
	148	 1	 19.10	 4.72	 0.0	 0.0	 1	    1.00000	    0.00000	 138.0	 1	    1.10000	    0.90000;
	149	 1	 19.10	 4.22	 0.0	 0.0	 1	    1.00000	    0.00000	 138.0	 1	    1.10000	    0.90000;
	150	 1	 13.35	 3.19	 0.0	 0.0	 1	    1.00000	    0.00000	 138.0	 1	    1.10000	    0.90000;
	151	 1	 31.53	 0.56	 0.0	 0.0	 1	    1.00000	    0.00000	 138.0	 1	    1.10000	    0.90000;
	152	 1	 7.84	 2.81	 0.0	 0.0	 1	    1.00000	    0.00000	 138.0	 1	    1.10000	    0.90000;
	153	 2	 102.26	 27.21	 0.0	 0.0	 1	    1.00000	    0.00000	 138.0	 1	    1.10000	    0.90000;
	154	 1	 5.02	 2.51	 0.0	 0.0	 1	    1.00000	    0.00000	 138.0	 1	    1.10000	    0.90000;
	155	 1	 70.67	 32.55	 0.0	 0.0	 1	    1.00000	    0.00000	 138.0	 1	    1.10000	    0.90000;
	156	 1	 30.62	 8.34	 0.0	 0.0	 1	    1.00000	    0.00000	 138.0	 1	    1.10000	    0.90000;
	157	 2	 23.39	 12.25	 0.0	 0.0	 1	    1.00000	    0.00000	 138.0	 1	    1.10000	    0.90000;
	158	 1	 16.04	 7.63	 0.0	 0.0	 1	    1.00000	    0.00000	 138.0	 1	    1.10000	    0.90000;
	159	 2	 22.90	 6.73	 0.0	 0.0	 1	    1.00000	    0.00000	 138.0	 1	    1.10000	    0.90000;
	160	 2	 26.82	 20.15	 0.0	 0.0	 1	    1.00000	    0.00000	 138.0	 1	    1.10000	    0.90000;
	161	 1	 15.19	 5.42	 0.0	 0.0	 1	    1.00000	    0.00000	 138.0	 1	    1.10000	    0.90000;
	162	 1	 51.07	 16.77	 0.0	 0.0	 1	    1.00000	    0.00000	 138.0	 1	    1.10000	    0.90000;
	163	 1	 25.60	 8.33	 0.0	 0.0	 1	    1.00000	    0.00000	 138.0	 1	    1.10000	    0.90000;
	164	 1	 2.57	 0.80	 0.0	 0.0	 1	    1.00000	    0.00000	 138.0	 1	    1.10000	    0.90000;
	165	 1	 54.13	 14.96	 0.0	 0.0	 1	    1.00000	    0.00000	 138.0	 1	    1.10000	    0.90000;
	166	 1	 61.85	 16.87	 0.0	 0.0	 1	    1.00000	    0.00000	 138.0	 1	    1.10000	    0.90000;
	167	 1	 17.27	 5.22	 0.0	 0.0	 1	    1.00000	    0.00000	 138.0	 1	    1.10000	    0.90000;
	168	 1	 0.0	 0.0	 0.0	 0.0	 1	    1.00000	    0.00000	 500.0	 1	    1.10000	    0.90000;
	169	 1	 0.0	 0.0	 0.0	 0.0	 2	    1.00000	    0.00000	 500.0	 2	    1.10000	    0.90000;
	170	 2	 0.0	 0.0	 0.0	 0.0	 2	    1.00000	    0.00000	 500.0	 2	    1.10000	    0.90000;
	171	 2	 0.0	 0.0	 0.0	 0.0	 2	    1.00000	    0.00000	 500.0	 2	    1.10000	    0.90000;
	172	 2	 0.0	 0.0	 0.0	 0.0	 2	    1.00000	    0.00000	 500.0	 2	    1.10000	    0.90000;
	173	 1	 122.12	 -142.76	 0.0	 0.0	 2	    1.00000	    0.00000	 500.0	 2	    1.10000	    0.90000;
	174	 1	 0.0	 0.0	 0.0	 0.0	 2	    1.00000	    0.00000	 500.0	 2	    1.10000	    0.90000;
	175	 2	 0.0	 0.0	 0.0	 0.0	 2	    1.00000	    0.00000	 500.0	 2	    1.10000	    0.90000;
	176	 2	 0.0	 0.0	 0.0	 0.0	 2	    1.00000	    0.00000	 500.0	 2	    1.10000	    0.90000;
	177	 2	 0.0	 0.0	 0.0	 0.0	 2	    1.00000	    0.00000	 500.0	 2	    1.10000	    0.90000;
	178	 2	 0.0	 0.0	 0.0	 0.0	 2	    1.00000	    0.00000	 500.0	 2	    1.10000	    0.90000;
	179	 1	 5.48	 3.37	 0.0	 0.0	 2	    1.00000	    0.00000	 500.0	 2	    1.10000	    0.90000;
	180	 2	 0.0	 0.0	 0.0	 0.0	 2	    1.00000	    0.00000	 500.0	 2	    1.10000	    0.90000;
	181	 2	 0.0	 0.0	 0.0	 0.0	 2	    1.00000	    0.00000	 500.0	 2	    1.10000	    0.90000;
	182	 1	 0.0	 0.0	 0.0	 0.0	 2	    1.00000	    0.00000	 500.0	 2	    1.10000	    0.90000;
	183	 2	 0.0	 0.0	 0.0	 0.0	 2	    1.00000	    0.00000	 500.0	 2	    1.10000	    0.90000;
	184	 2	 0.0	 0.0	 0.0	 0.0	 2	    1.00000	    0.00000	 500.0	 2	    1.10000	    0.90000;
	185	 2	 0.0	 0.0	 0.0	 0.0	 2	    1.00000	    0.00000	 500.0	 2	    1.10000	    0.90000;
	186	 2	 0.0	 0.0	 0.0	 0.0	 2	    1.00000	    0.00000	 500.0	 2	    1.10000	    0.90000;
	187	 1	 0.0	 0.0	 0.0	 0.0	 2	    1.00000	    0.00000	 500.0	 2	    1.10000	    0.90000;
	188	 2	 0.0	 0.0	 0.0	 0.0	 2	    1.00000	    0.00000	 500.0	 2	    1.10000	    0.90000;
	189	 2	 0.0	 0.0	 0.0	 0.0	 2	    1.00000	    0.00000	 500.0	 2	    1.10000	    0.90000;
	190	 2	 0.0	 0.0	 0.0	 0.0	 2	    1.00000	    0.00000	 500.0	 2	    1.10000	    0.90000;
	191	 1	 0.0	 0.0	 0.0	 0.0	 2	    1.00000	    0.00000	 500.0	 2	    1.10000	    0.90000;
	192	 2	 0.0	 0.0	 0.0	 0.0	 2	    1.00000	    0.00000	 500.0	 2	    1.10000	    0.90000;
	193	 2	 0.0	 0.0	 0.0	 0.0	 2	    1.00000	    0.00000	 500.0	 2	    1.10000	    0.90000;
	194	 2	 0.0	 0.0	 0.0	 0.0	 2	    1.00000	    0.00000	 500.0	 2	    1.10000	    0.90000;
	195	 1	 0.0	 0.0	 0.0	 0.0	 2	    1.00000	    0.00000	 500.0	 2	    1.10000	    0.90000;
	196	 1	 32.23	 39.00	 0.0	 0.0	 2	    1.00000	    0.00000	 500.0	 2	    1.10000	    0.90000;
	197	 2	 0.0	 0.0	 0.0	 0.0	 2	    1.00000	    0.00000	 500.0	 2	    1.10000	    0.90000;
	198	 2	 0.0	 0.0	 0.0	 0.0	 2	    1.00000	    0.00000	 500.0	 2	    1.10000	    0.90000;
	199	 1	 0.0	 0.0	 0.0	 0.0	 2	    1.00000	    0.00000	 500.0	 2	    1.10000	    0.90000;
	200	 1	 0.0	 0.0	 0.0	 0.0	 2	    1.00000	    0.00000	 500.0	 2	    1.10000	    0.90000;
...
];

%% generator data
%	bus	Pg	Qg	Qmax	Qmin	Vg	mBase	status	Pmax	Pmin	Pc1	Pc2	Qc1min	Qc1max	Qc2min	Qc2max	ramp_agc	ramp_10	ramp_30	ramp_q	apf
mpc.gen = [
	1	 51.3975	 0.0	 157.99	 -157.99	 1.0	 100.0	 1	 102	 0.795	 0.0	 0.0	 0.0	 0.0	 0.0	 0.0	 0.0	 0.0	 0.0	 0.0	 64.818; % NG
	2	 88.805	 0.0	 75.0	 -75.0	 1.0	 100.0	 1	 150	 27.61	 0.0	 0.0	 0.0	 0.0	 0.0	 0.0	 0.0	 0.0	 0.0	 0.0	 170.701; % NG
	3	 45.8	 -14.855	 118.84	 -148.55	 1.0	 100.0	 1	 87	 4.6	 0.0	 0.0	 0.0	 0.0	 0.0	 0.0	 0.0	 0.0	 0.0	 0.0	 46.109; % NG
	5	 152.385	 0.0	 114.0	 -114.0	 1.0	 100.0	 1	 227	 77.77	 0.0	 0.0	 0.0	 0.0	 0.0	 0.0	 0.0	 0.0	 0.0	 0.0	 228.682; % NG
	10	 56.8925	 -8.13	 65.04	 -81.3	 1.0	 100.0	 1	 91	 22.785	 0.0	 0.0	 0.0	 0.0	 0.0	 0.0	 0.0	 0.0	 0.0	 0.0	 83.063; % NG
	12	 191.4175	 0.0	 169.0	 -169.0	 1.0	 166.81	 1	 337	 45.835	 0.0	 0.0	 0.0	 0.0	 0.0	 0.0	 0.0	 0.0	 0.0	 0.0	 137.5; % NG
	12	 0.0	 0.0	 40.0	 -40.0	 1.0	 120.0	 0	 16	 100.0	 0.0	 0.0	 0.0	 0.0	 0.0	 0.0	 0.0	 0.0	 0.0	 0.0	 120.0; % NG
	13	 154.4175	 0.0	 132.0	 -132.0	 1.0	 166.81	 1	 263	 45.835	 0.0	 0.0	 0.0	 0.0	 0.0	 0.0	 0.0	 0.0	 0.0	 0.0	 137.5; % COW
	15	 0.0	 0.0	 28.0	 -28.0	 1.0	 50.0	 0	 55	 20.0	 0.0	 0.0	 0.0	 0.0	 0.0	 0.0	 0.0	 0.0	 0.0	 0.0	 50.0; % NG
	18	 186.0	 0.0	 151.2	 -151.2	 1.0	 225.0	 1	 297	 75.0	 0.0	 0.0	 0.0	 0.0	 0.0	 0.0	 0.0	 0.0	 0.0	 0.0	 225.0; % COW
	19	 183.0	 0.0	 146.0	 -146.0	 1.0	 275.06	 1	 291	 75.0	 0.0	 0.0	 0.0	 0.0	 0.0	 0.0	 0.0	 0.0	 0.0	 0.0	 250.0; % NG
	19	 0.0	 0.0	 66.67	 -66.67	 1.0	 200.0	 0	 9	 150.0	 0.0	 0.0	 0.0	 0.0	 0.0	 0.0	 0.0	 0.0	 0.0	 0.0	 200.0; % NG
	19	 136.8325	 13.61	 131.22	 -104.0	 1.0	 234.36	 1	 207	 66.665	 0.0	 0.0	 0.0	 0.0	 0.0	 0.0	 0.0	 0.0	 0.0	 0.0	 200.0; % COW
	20	 218.5	 54.25	 367.5	 -259.0	 1.0	 566.05	 1	 344	 93.0	 0.0	 0.0	 0.0	 0.0	 0.0	 0.0	 0.0	 0.0	 0.0	 0.0	 464.0; % NG
	24	 366.68	 0.0	 319.0	 -319.0	 1.0	 100.0	 1	 637	 96.36	 0.0	 0.0	 0.0	 0.0	 0.0	 0.0	 0.0	 0.0	 0.0	 0.0	 442.978; % NG
	25	 0.0	 0.0	 111.0	 -111.0	 1.0	 100.0	 0	 221	 35.1	 0.0	 0.0	 0.0	 0.0	 0.0	 0.0	 0.0	 0.0	 0.0	 0.0	 85.204; % NG
	32	 0.0	 0.0	 33.33	 -33.33	 1.0	 100.0	 0	 21	 162.48	 0.0	 0.0	 0.0	 0.0	 0.0	 0.0	 0.0	 0.0	 0.0	 0.0	 177.483; % NG
	44	 49.75	 5.5	 57.0	 -46.0	 1.0	 61.03	 1	 92	 7.5	 0.0	 0.0	 0.0	 0.0	 0.0	 0.0	 0.0	 0.0	 0.0	 0.0	 55.0; % NG
	45	 49.25	 5.5	 57.0	 -46.0	 1.0	 68.9	 1	 91	 7.5	 0.0	 0.0	 0.0	 0.0	 0.0	 0.0	 0.0	 0.0	 0.0	 0.0	 68.75; % PEL
	45	 26.75	 21.5	 71.0	 -28.0	 1.0	 77.0	 1	 52	 1.5	 0.0	 0.0	 0.0	 0.0	 0.0	 0.0	 0.0	 0.0	 0.0	 0.0	 77.0; % PEL
	59	 25.125	 0.0	 22.0	 -22.0	 1.0	 100.0	 1	 43	 7.25	 0.0	 0.0	 0.0	 0.0	 0.0	 0.0	 0.0	 0.0	 0.0	 0.0	 36.54; % PEL
	64	 0.0	 0.0	 33.33	 -33.33	 1.0	 100.0	 0	 20	 11.925	 0.0	 0.0	 0.0	 0.0	 0.0	 0.0	 0.0	 0.0	 0.0	 0.0	 38.851; % COW
	80	 0.0	 0.0	 16.67	 -16.67	 1.0	 50.0	 0	 13	 35.0	 0.0	 0.0	 0.0	 0.0	 0.0	 0.0	 0.0	 0.0	 0.0	 0.0	 50.0; % NG
	80	 37.1675	 -72.0	 33.0	 -177.0	 1.0	 28.0	 1	 66	 8.335	 0.0	 0.0	 0.0	 0.0	 0.0	 0.0	 0.0	 0.0	 0.0	 0.0	 35.0; % NG
	82	 0.0	 0.0	 33.33	 -33.33	 1.0	 100.0	 0	 4	 15.55	 0.0	 0.0	 0.0	 0.0	 0.0	 0.0	 0.0	 0.0	 0.0	 0.0	 30.546; % PEL
	84	 0.0	 0.0	 66.67	 -66.67	 1.0	 200.0	 0	 73	 150.0	 0.0	 0.0	 0.0	 0.0	 0.0	 0.0	 0.0	 0.0	 0.0	 0.0	 200.0; % NG
	85	 284.5	 0.0	 247.0	 -247.0	 1.0	 253.76	 1	 494	 75.0	 0.0	 0.0	 0.0	 0.0	 0.0	 0.0	 0.0	 0.0	 0.0	 0.0	 200.0; % NG
	98	 0.0	 0.0	 66.0	 -66.0	 1.0	 50.0	 0	 131	 0.0	 0.0	 0.0	 0.0	 0.0	 0.0	 0.0	 0.0	 0.0	 0.0	 0.0	 50.0; % NG
	98	 51.5	 -61.5	 52.0	 -175.0	 1.0	 55.0	 1	 103	 0.0	 0.0	 0.0	 0.0	 0.0	 0.0	 0.0	 0.0	 0.0	 0.0	 0.0	 55.0; % NG
	98	 0.0	 0.0	 79.0	 -79.0	 1.0	 55.0	 0	 157	 0.0	 0.0	 0.0	 0.0	 0.0	 0.0	 0.0	 0.0	 0.0	 0.0	 0.0	 55.0; % NG
	99	 0.0	 0.0	 53.0	 -53.0	 1.0	 35.0	 0	 106	 0.0	 0.0	 0.0	 0.0	 0.0	 0.0	 0.0	 0.0	 0.0	 0.0	 0.0	 35.0; % NG
	99	 0.0	 0.0	 19.0	 -19.0	 1.0	 32.0	 0	 38	 0.0	 0.0	 0.0	 0.0	 0.0	 0.0	 0.0	 0.0	 0.0	 0.0	 0.0	 32.0; % NG
	110	 0.0	 0.0	 36.0	 -36.0	 1.0	 7.0	 0	 71	 2.5	 0.0	 0.0	 0.0	 0.0	 0.0	 0.0	 0.0	 0.0	 0.0	 0.0	 292.0; % NG
	113	 179.355	 0.0	 169.0	 -169.0	 1.0	 100.0	 1	 337	 21.71	 0.0	 0.0	 0.0	 0.0	 0.0	 0.0	 0.0	 0.0	 0.0	 0.0	 71.879; % COW
	115	 99.25	 10.5	 187.0	 -166.0	 1.0	 4.02	 1	 198	 0.5	 0.0	 0.0	 0.0	 0.0	 0.0	 0.0	 0.0	 0.0	 0.0	 0.0	 271.0; % NG
	120	 0.0	 0.0	 14.0	 -14.0	 1.0	 4.0	 0	 27	 0.0	 0.0	 0.0	 0.0	 0.0	 0.0	 0.0	 0.0	 0.0	 0.0	 0.0	 279.0; % NG
	120	 0.0	 0.0	 53.0	 -53.0	 1.0	 4.0	 0	 106	 0.0	 0.0	 0.0	 0.0	 0.0	 0.0	 0.0	 0.0	 0.0	 0.0	 0.0	 251.0; % NG
	120	 0.0	 0.0	 33.0	 -33.0	 1.0	 4.0	 0	 65	 0.0	 0.0	 0.0	 0.0	 0.0	 0.0	 0.0	 0.0	 0.0	 0.0	 0.0	 266.0; % NG
	120	 52.0	 -66.5	 52.0	 -185.0	 1.0	 22.88	 1	 104	 0.0	 0.0	 0.0	 0.0	 0.0	 0.0	 0.0	 0.0	 0.0	 0.0	 0.0	 20.0; % PEL
	120	 42.0	 -69.5	 42.0	 -181.0	 1.0	 20.0	 1	 84	 0.0	 0.0	 0.0	 0.0	 0.0	 0.0	 0.0	 0.0	 0.0	 0.0	 0.0	 20.0; % NG
	124	 51.75	 1.5	 179.0	 -176.0	 1.0	 13.31	 1	 101	 2.5	 0.0	 0.0	 0.0	 0.0	 0.0	 0.0	 0.0	 0.0	 0.0	 0.0	 20.0; % PEL
	124	 0.0	 0.0	 10.0	 -10.0	 1.0	 12.0	 0	 19	 2.5	 0.0	 0.0	 0.0	 0.0	 0.0	 0.0	 0.0	 0.0	 0.0	 0.0	 20.0; % PEL
	128	 0.0	 0.0	 74.0	 -74.0	 1.0	 5.0	 0	 147	 2.0	 0.0	 0.0	 0.0	 0.0	 0.0	 0.0	 0.0	 0.0	 0.0	 0.0	 274.0; % NG
	132	 25.5	 -71.5	 26.0	 -169.0	 1.0	 15.84	 1	 51	 0.0	 0.0	 0.0	 0.0	 0.0	 0.0	 0.0	 0.0	 0.0	 0.0	 0.0	 16.5; % PEL
	132	 22.5	 2.0	 178.0	 -174.0	 1.0	 5.0	 1	 45	 0.0	 0.0	 0.0	 0.0	 0.0	 0.0	 0.0	 0.0	 0.0	 0.0	 0.0	 255.0; % NG
	132	 0.0	 0.0	 2.0	 -2.0	 1.0	 5.0	 0	 4	 0.0	 0.0	 0.0	 0.0	 0.0	 0.0	 0.0	 0.0	 0.0	 0.0	 0.0	 262.0; % COW
	133	 0.0	 0.0	 21.0	 -21.0	 1.0	 13.0	 0	 42	 0.0	 0.0	 0.0	 0.0	 0.0	 0.0	 0.0	 0.0	 0.0	 0.0	 0.0	 13.0; % NG
	136	 0.0	 0.0	 54.0	 -54.0	 1.0	 6.0	 0	 107	 2.5	 0.0	 0.0	 0.0	 0.0	 0.0	 0.0	 0.0	 0.0	 0.0	 0.0	 298.0; % NG
	147	 75.0	 -2.5	 176.0	 -181.0	 1.0	 1.0	 1	 150	 0.0	 0.0	 0.0	 0.0	 0.0	 0.0	 0.0	 0.0	 0.0	 0.0	 0.0	 282.0; % NG
	153	 0.0	 0.0	 52.0	 -52.0	 1.0	 11.0	 0	 104	 0.0	 0.0	 0.0	 0.0	 0.0	 0.0	 0.0	 0.0	 0.0	 0.0	 0.0	 11.0; % NG
	153	 0.0	 0.0	 15.0	 -15.0	 1.0	 6.0	 0	 29	 0.0	 0.0	 0.0	 0.0	 0.0	 0.0	 0.0	 0.0	 0.0	 0.0	 0.0	 270.0; % NG
	153	 87.5	 -40.0	 88.0	 -168.0	 1.0	 41.48	 1	 175	 0.0	 0.0	 0.0	 0.0	 0.0	 0.0	 0.0	 0.0	 0.0	 0.0	 0.0	 40.0; % NG
	153	 37.0	 -72.0	 37.0	 -181.0	 1.0	 40.0	 1	 74	 0.0	 0.0	 0.0	 0.0	 0.0	 0.0	 0.0	 0.0	 0.0	 0.0	 0.0	 40.0; % NG
	157	 81.0	 8.5	 194.0	 -177.0	 1.0	 35.0	 1	 162	 0.0	 0.0	 0.0	 0.0	 0.0	 0.0	 0.0	 0.0	 0.0	 0.0	 0.0	 35.0; % PEL
	157	 0.0	 0.0	 11.67	 -11.67	 1.0	 35.0	 0	 8	 0.0	 0.0	 0.0	 0.0	 0.0	 0.0	 0.0	 0.0	 0.0	 0.0	 0.0	 35.0; % PEL
	159	 55.6325	 71.5	 196.0	 -53.0	 1.0	 100.0	 1	 105	 6.265	 0.0	 0.0	 0.0	 0.0	 0.0	 0.0	 0.0	 0.0	 0.0	 0.0	 44.724; % NG
	160	 64.5	 0.0	 65.0	 -65.0	 1.0	 34.12	 1	 129	 0.0	 0.0	 0.0	 0.0	 0.0	 0.0	 0.0	 0.0	 0.0	 0.0	 0.0	 33.375; % NG
	160	 26.5	 0.0	 27.0	 -27.0	 1.0	 27.0	 1	 53	 0.0	 0.0	 0.0	 0.0	 0.0	 0.0	 0.0	 0.0	 0.0	 0.0	 0.0	 27.0; % NG
	170	 121.0	 0.0	 330.75	 -330.75	 1.0	 100.0	 1	 242	 0.0	 0.0	 0.0	 0.0	 0.0	 0.0	 0.0	 0.0	 0.0	 0.0	 0.0	 367.5; % NG
	171	 587.085	 0.0	 518.0	 -518.0	 1.0	 100.0	 1	 1036	 138.17	 0.0	 0.0	 0.0	 0.0	 0.0	 0.0	 0.0	 0.0	 0.0	 0.0	 1108.425; % COW
	172	 127.5	 0.0	 194.4	 -194.4	 1.0	 100.0	 1	 255	 0.0	 0.0	 0.0	 0.0	 0.0	 0.0	 0.0	 0.0	 0.0	 0.0	 0.0	 270.0; % NG
	175	 105.5	 0.0	 205.2	 -205.2	 1.0	 100.0	 1	 211	 0.0	 0.0	 0.0	 0.0	 0.0	 0.0	 0.0	 0.0	 0.0	 0.0	 0.0	 285.0; % COW
	176	 199.5	 0.0	 205.2	 -205.2	 1.0	 100.0	 1	 399	 0.0	 0.0	 0.0	 0.0	 0.0	 0.0	 0.0	 0.0	 0.0	 0.0	 0.0	 285.0; % NG
	177	 278.0	 0.0	 278.0	 -278.0	 1.0	 100.0	 1	 556	 0.0	 0.0	 0.0	 0.0	 0.0	 0.0	 0.0	 0.0	 0.0	 0.0	 0.0	 285.0; % NG
	178	 152.0	 0.0	 349.65	 -349.65	 1.0	 100.0	 1	 304	 0.0	 0.0	 0.0	 0.0	 0.0	 0.0	 0.0	 0.0	 0.0	 0.0	 0.0	 388.5; % NG
	180	 251.0	 0.0	 389.11	 -389.11	 1.0	 100.0	 1	 502	 0.0	 0.0	 0.0	 0.0	 0.0	 0.0	 0.0	 0.0	 0.0	 0.0	 0.0	 432.348; % NG
	181	 204.0	 0.0	 389.11	 -389.11	 1.0	 100.0	 1	 408	 0.0	 0.0	 0.0	 0.0	 0.0	 0.0	 0.0	 0.0	 0.0	 0.0	 0.0	 432.347; % NG
	183	 206.0	 0.0	 364.53	 -364.53	 1.0	 100.0	 1	 412	 0.0	 0.0	 0.0	 0.0	 0.0	 0.0	 0.0	 0.0	 0.0	 0.0	 0.0	 405.03; % COW
	184	 178.0	 0.0	 364.49	 -364.49	 1.0	 100.0	 1	 356	 0.0	 0.0	 0.0	 0.0	 0.0	 0.0	 0.0	 0.0	 0.0	 0.0	 0.0	 404.985; % NG
	185	 125.5	 0.0	 364.55	 -364.55	 1.0	 100.0	 1	 251	 0.0	 0.0	 0.0	 0.0	 0.0	 0.0	 0.0	 0.0	 0.0	 0.0	 0.0	 405.051; % NG
	186	 121.5	 0.0	 364.53	 -364.53	 1.0	 100.0	 1	 243	 0.0	 0.0	 0.0	 0.0	 0.0	 0.0	 0.0	 0.0	 0.0	 0.0	 0.0	 405.028; % COW
	188	 336.0	 0.0	 360.05	 -360.05	 1.0	 100.0	 1	 672	 0.0	 0.0	 0.0	 0.0	 0.0	 0.0	 0.0	 0.0	 0.0	 0.0	 0.0	 400.05; % COW
	189	 200.5	 0.0	 360.05	 -360.05	 1.0	 100.0	 1	 401	 0.0	 0.0	 0.0	 0.0	 0.0	 0.0	 0.0	 0.0	 0.0	 0.0	 0.0	 400.05; % NG
	190	 157.5	 0.0	 359.91	 -359.91	 1.0	 100.0	 1	 315	 0.0	 0.0	 0.0	 0.0	 0.0	 0.0	 0.0	 0.0	 0.0	 0.0	 0.0	 399.9; % NG
	192	 265.5	 0.0	 346.95	 -346.95	 1.0	 100.0	 1	 531	 0.0	 0.0	 0.0	 0.0	 0.0	 0.0	 0.0	 0.0	 0.0	 0.0	 0.0	 385.5; % NG
	193	 137.5	 0.0	 346.95	 -346.95	 1.0	 100.0	 1	 275	 0.0	 0.0	 0.0	 0.0	 0.0	 0.0	 0.0	 0.0	 0.0	 0.0	 0.0	 385.5; % NG
	194	 131.5	 0.0	 367.96	 -367.96	 1.0	 100.0	 1	 263	 0.0	 0.0	 0.0	 0.0	 0.0	 0.0	 0.0	 0.0	 0.0	 0.0	 0.0	 408.848; % NG
	197	 455.6	 0.0	 316.0	 -316.0	 1.0	 100.0	 1	 632	 279.2	 0.0	 0.0	 0.0	 0.0	 0.0	 0.0	 0.0	 0.0	 0.0	 0.0	 776.819; % COW
	198	 683.315	 0.0	 538.0	 -538.0	 1.0	 100.0	 1	 1076	 290.63	 0.0	 0.0	 0.0	 0.0	 0.0	 0.0	 0.0	 0.0	 0.0	 0.0	 871.884; % COW
	203	 323.8425	 0.0	 273.0	 -273.0	 1.0	 100.0	 1	 546	 101.685	 0.0	 0.0	 0.0	 0.0	 0.0	 0.0	 0.0	 0.0	 0.0	 0.0	 917.82; % COW
	204	 0.0	 0.0	 33.33	 -33.33	 1.0	 100.0	 0	 51	 0.0	 0.0	 0.0	 0.0	 0.0	 0.0	 0.0	 0.0	 0.0	 0.0	 0.0	 285.0; % NG
	204	 0.0	 0.0	 40.0	 -40.0	 1.0	 100.0	 0	 79	 0.0	 0.0	 0.0	 0.0	 0.0	 0.0	 0.0	 0.0	 0.0	 0.0	 0.0	 263.0; % NG
	205	 0.0	 0.0	 33.33	 -33.33	 1.0	 100.0	 0	 62	 0.0	 0.0	 0.0	 0.0	 0.0	 0.0	 0.0	 0.0	 0.0	 0.0	 0.0	 256.0; % COW
	205	 0.0	 0.0	 418.0	 -418.0	 1.0	 100.0	 0	 836	 0.0	 0.0	 0.0	 0.0	 0.0	 0.0	 0.0	 0.0	 0.0	 0.0	 0.0	 292.0; % COW
	206	 1286.4525	 0.0	 945.0	 -945.0	 1.0	 100.0	 1	 1890	 682.905	 0.0	 0.0	 0.0	 0.0	 0.0	 0.0	 0.0	 0.0	 0.0	 0.0	 1966.771; % COW
	211	 0.0	 0.0	 89.0	 -89.0	 1.0	 100.0	 0	 177	 0.0	 0.0	 0.0	 0.0	 0.0	 0.0	 0.0	 0.0	 0.0	 0.0	 0.0	 269.0; % NG
	211	 0.0	 0.0	 33.33	 -33.33	 1.0	 100.0	 0	 19	 0.0	 0.0	 0.0	 0.0	 0.0	 0.0	 0.0	 0.0	 0.0	 0.0	 0.0	 269.0; % NG
	220	 0.0	 0.0	 39.0	 -39.0	 1.0	 100.0	 0	 77	 40.46	 0.0	 0.0	 0.0	 0.0	 0.0	 0.0	 0.0	 0.0	 0.0	 0.0	 95.919; % NG
	228	 433.59	 0.0	 350.0	 -350.0	 1.0	 100.0	 1	 699	 168.18	 0.0	 0.0	 0.0	 0.0	 0.0	 0.0	 0.0	 0.0	 0.0	 0.0	 451.68; % NG
	229	 899.12	 0.0	 839.0	 -839.0	 1.0	 100.0	 1	 1677	 121.24	 0.0	 0.0	 0.0	 0.0	 0.0	 0.0	 0.0	 0.0	 0.0	 0.0	 363.72; % COW
	230	 509.1425	 0.0	 457.0	 -457.0	 1.0	 100.0	 1	 913	 105.285	 0.0	 0.0	 0.0	 0.0	 0.0	 0.0	 0.0	 0.0	 0.0	 0.0	 287.547; % NG
	246	 0.0	 0.0	 33.33	 -33.33	 1.0	 100.0	 0	 35	 0.0	 0.0	 0.0	 0.0	 0.0	 0.0	 0.0	 0.0	 0.0	 0.0	 0.0	 256.0; % NG
	247	 0.0	 0.0	 341.0	 -341.0	 1.0	 100.0	 0	 681	 0.0	 0.0	 0.0	 0.0	 0.0	 0.0	 0.0	 0.0	 0.0	 0.0	 0.0	 251.0; % COW
	258	 99.5	 0.0	 182.25	 -182.25	 1.0	 100.0	 1	 199	 0.0	 0.0	 0.0	 0.0	 0.0	 0.0	 0.0	 0.0	 0.0	 0.0	 0.0	 253.125; % NG
	259	 236.0	 0.0	 236.0	 -236.0	 1.0	 100.0	 1	 472	 0.0	 0.0	 0.0	 0.0	 0.0	 0.0	 0.0	 0.0	 0.0	 0.0	 0.0	 253.125; % NG
	260	 111.0	 0.0	 182.25	 -182.25	 1.0	 100.0	 1	 222	 0.0	 0.0	 0.0	 0.0	 0.0	 0.0	 0.0	 0.0	 0.0	 0.0	 0.0	 253.125; % NG
	262	 341.5	 0.0	 370.95	 -370.95	 1.0	 100.0	 1	 683	 0.0	 0.0	 0.0	 0.0	 0.0	 0.0	 0.0	 0.0	 0.0	 0.0	 0.0	 412.164; % COW
	307	 229.0	 0.0	 377.23	 -377.23	 1.0	 100.0	 1	 458	 0.0	 0.0	 0.0	 0.0	 0.0	 0.0	 0.0	 0.0	 0.0	 0.0	 0.0	 419.147; % COW
	316	 47.0475	 0.0	 46.0	 -46.0	 1.0	 100.0	 1	 91	 3.095	 0.0	 0.0	 0.0	 0.0	 0.0	 0.0	 0.0	 0.0	 0.0	 0.0	 32.912; % NG
	319	 69.1825	 62.5	 193.0	 -68.0	 1.0	 100.0	 1	 136	 2.365	 0.0	 0.0	 0.0	 0.0	 0.0	 0.0	 0.0	 0.0	 0.0	 0.0	 43.567; % NG
	321	 34.0	 0.0	 34.0	 -34.0	 1.0	 100.0	 1	 68	 0.0	 0.0	 0.0	 0.0	 0.0	 0.0	 0.0	 0.0	 0.0	 0.0	 0.0	 46.875; % NG
	323	 62.5	 0.0	 63.0	 -63.0	 1.0	 100.0	 1	 125	 0.0	 0.0	 0.0	 0.0	 0.0	 0.0	 0.0	 0.0	 0.0	 0.0	 0.0	 46.875; % NG
	324	 64.3	 67.5	 189.0	 -54.0	 1.0	 100.0	 1	 108	 20.6	 0.0	 0.0	 0.0	 0.0	 0.0	 0.0	 0.0	 0.0	 0.0	 0.0	 64.438; % NG
	326	 24.0	 0.0	 31.05	 -31.05	 1.0	 100.0	 1	 48	 0.0	 0.0	 0.0	 0.0	 0.0	 0.0	 0.0	 0.0	 0.0	 0.0	 0.0	 43.125; % NG
	327	 25.0	 0.0	 31.05	 -31.05	 1.0	 100.0	 1	 50	 0.0	 0.0	 0.0	 0.0	 0.0	 0.0	 0.0	 0.0	 0.0	 0.0	 0.0	 43.125; % PEL
	330	 27.0	 0.0	 49.95	 -49.95	 1.0	 100.0	 1	 54	 0.0	 0.0	 0.0	 0.0	 0.0	 0.0	 0.0	 0.0	 0.0	 0.0	 0.0	 69.375; % PEL
	334	 9.0	 0.0	 13.5	 -13.5	 1.0	 100.0	 1	 18	 0.0	 0.0	 0.0	 0.0	 0.0	 0.0	 0.0	 0.0	 0.0	 0.0	 0.0	 18.75; % NG
	335	 11.5	 0.0	 13.5	 -13.5	 1.0	 100.0	 1	 23	 0.0	 0.0	 0.0	 0.0	 0.0	 0.0	 0.0	 0.0	 0.0	 0.0	 0.0	 18.75; % PEL
	336	 7.0	 0.0	 13.5	 -13.5	 1.0	 100.0	 1	 14	 0.0	 0.0	 0.0	 0.0	 0.0	 0.0	 0.0	 0.0	 0.0	 0.0	 0.0	 18.75; % NG
	340	 37.5	 0.0	 63.18	 -63.18	 1.0	 100.0	 1	 75	 0.0	 0.0	 0.0	 0.0	 0.0	 0.0	 0.0	 0.0	 0.0	 0.0	 0.0	 87.771; % NG
	342	 18.5	 0.0	 24.37	 -24.37	 1.0	 100.0	 1	 37	 0.0	 0.0	 0.0	 0.0	 0.0	 0.0	 0.0	 0.0	 0.0	 0.0	 0.0	 33.85; % NG
	345	 0.0	 0.0	 33.33	 -33.33	 1.0	 100.0	 0	 12	 9.865	 0.0	 0.0	 0.0	 0.0	 0.0	 0.0	 0.0	 0.0	 0.0	 0.0	 34.725; % NG
	346	 111.585	 0.0	 109.0	 -109.0	 1.0	 100.0	 1	 217	 6.17	 0.0	 0.0	 0.0	 0.0	 0.0	 0.0	 0.0	 0.0	 0.0	 0.0	 34.714; % NG
	348	 88.49	 0.0	 77.0	 -77.0	 1.0	 100.0	 1	 153	 23.98	 0.0	 0.0	 0.0	 0.0	 0.0	 0.0	 0.0	 0.0	 0.0	 0.0	 76.887; % NG
	353	 44.185	 0.0	 44.0	 -44.0	 1.0	 100.0	 1	 87	 1.37	 0.0	 0.0	 0.0	 0.0	 0.0	 0.0	 0.0	 0.0	 0.0	 0.0	 43.626; % NG
	355	 0.0	 0.0	 102.0	 -102.0	 1.0	 100.0	 0	 204	 40.285	 0.0	 0.0	 0.0	 0.0	 0.0	 0.0	 0.0	 0.0	 0.0	 0.0	 95.575; % NG
	359	 187.78	 12.0	 196.0	 -172.0	 1.0	 100.0	 1	 343	 32.56	 0.0	 0.0	 0.0	 0.0	 0.0	 0.0	 0.0	 0.0	 0.0	 0.0	 93.142; % NG
	370	 0.0	 0.0	 33.33	 -33.33	 1.0	 100.0	 0	 13	 10.025	 0.0	 0.0	 0.0	 0.0	 0.0	 0.0	 0.0	 0.0	 0.0	 0.0	 35.048; % PEL
	376	 27.0	 0.0	 33.75	 -33.75	 1.0	 100.0	 1	 54	 0.0	 0.0	 0.0	 0.0	 0.0	 0.0	 0.0	 0.0	 0.0	 0.0	 0.0	 46.875; % PEL
	384	 19.5	 0.0	 20.25	 -20.25	 1.0	 100.0	 1	 39	 0.0	 0.0	 0.0	 0.0	 0.0	 0.0	 0.0	 0.0	 0.0	 0.0	 0.0	 28.125; % NG
	387	 59.2325	 0.0	 53.0	 -53.0	 1.0	 100.0	 1	 105	 13.465	 0.0	 0.0	 0.0	 0.0	 0.0	 0.0	 0.0	 0.0	 0.0	 0.0	 47.76; % PEL
	388	 0.0	 0.0	 162.0	 -162.0	 1.0	 100.0	 0	 323	 16.375	 0.0	 0.0	 0.0	 0.0	 0.0	 0.0	 0.0	 0.0	 0.0	 0.0	 47.746; % NG
	391	 45.1825	 78.5	 196.0	 -39.0	 1.0	 100.0	 1	 78	 12.365	 0.0	 0.0	 0.0	 0.0	 0.0	 0.0	 0.0	 0.0	 0.0	 0.0	 44.671; % NG
	402	 28.2575	 0.0	 31.2	 -31.2	 1.0	 100.0	 1	 50	 6.515	 0.0	 0.0	 0.0	 0.0	 0.0	 0.0	 0.0	 0.0	 0.0	 0.0	 38.249; % NG
	404	 43.25	 -70.9	 41.2	 -183.0	 1.0	 78.0	 1	 81	 5.5	 0.0	 0.0	 0.0	 0.0	 0.0	 0.0	 0.0	 0.0	 0.0	 0.0	 78.0; % NG
	422	 101.75	 -38.5	 97.0	 -174.0	 1.0	 83.96	 1	 193	 10.5	 0.0	 0.0	 0.0	 0.0	 0.0	 0.0	 0.0	 0.0	 0.0	 0.0	 86.25; % COW
	441	 143.0	 0.0	 143.0	 -143.0	 1.0	 258.66	 1	 286	 0.0	 0.0	 0.0	 0.0	 0.0	 0.0	 0.0	 0.0	 0.0	 0.0	 0.0	 268.721; % NG
	453	 47.5825	 0.0	 46.0	 -46.0	 1.0	 100.0	 1	 91	 4.165	 0.0	 0.0	 0.0	 0.0	 0.0	 0.0	 0.0	 0.0	 0.0	 0.0	 27.174; % NG
	471	 93.6675	 53.5	 179.0	 -72.0	 1.0	 100.0	 1	 143	 44.335	 0.0	 0.0	 0.0	 0.0	 0.0	 0.0	 0.0	 0.0	 0.0	 0.0	 187.961; % NG
	489	 98.1575	 0.0	 88.0	 -88.0	 1.0	 100.0	 1	 175	 21.315	 0.0	 0.0	 0.0	 0.0	 0.0	 0.0	 0.0	 0.0	 0.0	 0.0	 113.922; % COW
	494	 165.0	 7.0	 152.0	 -138.0	 1.0	 306.24	 1	 275	 55.0	 0.0	 0.0	 0.0	 0.0	 0.0	 0.0	 0.0	 0.0	 0.0	 0.0	 256.25; % NG
	494	 0.0	 0.0	 73.33	 -73.33	 1.0	 220.0	 0	 46	 125.0	 0.0	 0.0	 0.0	 0.0	 0.0	 0.0	 0.0	 0.0	 0.0	 0.0	 220.0; % NG
	495	 0.0	 0.0	 224.0	 -224.0	 1.0	 225.0	 0	 448	 62.5	 0.0	 0.0	 0.0	 0.0	 0.0	 0.0	 0.0	 0.0	 0.0	 0.0	 225.0; % COW
	495	 223.0	 0.0	 196.0	 -196.0	 1.0	 304.12	 1	 391	 55.0	 0.0	 0.0	 0.0	 0.0	 0.0	 0.0	 0.0	 0.0	 0.0	 0.0	 256.25; % COW
	496	 145.5	 15.5	 149.0	 -118.0	 1.0	 274.96	 1	 236	 55.0	 0.0	 0.0	 0.0	 0.0	 0.0	 0.0	 0.0	 0.0	 0.0	 0.0	 281.25; % NG
	496	 177.0	 1.0	 149.0	 -147.0	 1.0	 228.01	 1	 294	 60.0	 0.0	 0.0	 0.0	 0.0	 0.0	 0.0	 0.0	 0.0	 0.0	 0.0	 225.0; % NG
	497	 272.75	 77.0	 363.0	 -209.0	 1.0	 535.0	 1	 418	 127.5	 0.0	 0.0	 0.0	 0.0	 0.0	 0.0	 0.0	 0.0	 0.0	 0.0	 535.0; % NG
	498	 308.5	 51.0	 348.0	 -246.0	 1.0	 560.0	 1	 492	 125.0	 0.0	 0.0	 0.0	 0.0	 0.0	 0.0	 0.0	 0.0	 0.0	 0.0	 560.0; % NG
	502	 86.71	 0.0	 66.0	 -66.0	 1.0	 100.0	 1	 132	 41.42	 0.0	 0.0	 0.0	 0.0	 0.0	 0.0	 0.0	 0.0	 0.0	 0.0	 147.174; % NG
	504	 145.485	 0.0	 127.0	 -127.0	 1.0	 100.0	 1	 253	 37.97	 0.0	 0.0	 0.0	 0.0	 0.0	 0.0	 0.0	 0.0	 0.0	 0.0	 233.656; % NG
	505	 0.0	 0.0	 75.0	 -75.0	 1.0	 225.0	 0	 74	 64.5	 0.0	 0.0	 0.0	 0.0	 0.0	 0.0	 0.0	 0.0	 0.0	 0.0	 225.0; % NG
	505	 0.0	 0.0	 75.0	 -75.0	 1.0	 225.0	 0	 39	 129.0	 0.0	 0.0	 0.0	 0.0	 0.0	 0.0	 0.0	 0.0	 0.0	 0.0	 225.0; % NG
	505	 0.0	 0.0	 50.0	 -50.0	 1.0	 100.0	 0	 99	 37.825	 0.0	 0.0	 0.0	 0.0	 0.0	 0.0	 0.0	 0.0	 0.0	 0.0	 90.647; % NG
	514	 0.0	 0.0	 33.33	 -33.33	 1.0	 100.0	 0	 6	 15.22	 0.0	 0.0	 0.0	 0.0	 0.0	 0.0	 0.0	 0.0	 0.0	 0.0	 30.222; % PEL
	515	 48.05	 32.5	 191.0	 -126.0	 1.0	 100.0	 1	 92	 4.1	 0.0	 0.0	 0.0	 0.0	 0.0	 0.0	 0.0	 0.0	 0.0	 0.0	 74.821; % NG
	516	 0.0	 0.0	 55.0	 -55.0	 1.0	 100.0	 0	 109	 37.545	 0.0	 0.0	 0.0	 0.0	 0.0	 0.0	 0.0	 0.0	 0.0	 0.0	 90.088; % NG
	517	 84.1525	 0.0	 82.0	 -82.0	 1.0	 100.0	 1	 163	 5.305	 0.0	 0.0	 0.0	 0.0	 0.0	 0.0	 0.0	 0.0	 0.0	 0.0	 88.022; % PEL
	518	 0.0	 0.0	 33.33	 -33.33	 1.0	 100.0	 0	 20	 42.35	 0.0	 0.0	 0.0	 0.0	 0.0	 0.0	 0.0	 0.0	 0.0	 0.0	 57.353; % PEL
	519	 0.0	 0.0	 33.33	 -33.33	 1.0	 100.0	 0	 46	 0.58	 0.0	 0.0	 0.0	 0.0	 0.0	 0.0	 0.0	 0.0	 0.0	 0.0	 284.0; % NG
	520	 0.0	 0.0	 102.0	 -102.0	 1.0	 6.0	 0	 203	 0.5	 0.0	 0.0	 0.0	 0.0	 0.0	 0.0	 0.0	 0.0	 0.0	 0.0	 258.0; % NG
	520	 0.0	 0.0	 42.0	 -42.0	 1.0	 6.0	 0	 83	 0.5	 0.0	 0.0	 0.0	 0.0	 0.0	 0.0	 0.0	 0.0	 0.0	 0.0	 292.0; % COW
	537	 0.0	 0.0	 33.33	 -33.33	 1.0	 100.0	 0	 37	 27.43	 0.0	 0.0	 0.0	 0.0	 0.0	 0.0	 0.0	 0.0	 0.0	 0.0	 69.858; % PEL
	538	 58.25	 1.0	 57.0	 -55.0	 1.0	 68.9	 1	 109	 7.5	 0.0	 0.0	 0.0	 0.0	 0.0	 0.0	 0.0	 0.0	 0.0	 0.0	 68.75; % NG
	538	 29.75	 21.0	 71.0	 -29.0	 1.0	 77.0	 1	 58	 1.5	 0.0	 0.0	 0.0	 0.0	 0.0	 0.0	 0.0	 0.0	 0.0	 0.0	 77.0; % NG
	544	 0.0	 0.0	 38.0	 -38.0	 1.0	 7.0	 0	 75	 1.5	 0.0	 0.0	 0.0	 0.0	 0.0	 0.0	 0.0	 0.0	 0.0	 0.0	 280.0; % NG
	558	 0.0	 0.0	 81.0	 -81.0	 1.0	 4.0	 0	 161	 1.5	 0.0	 0.0	 0.0	 0.0	 0.0	 0.0	 0.0	 0.0	 0.0	 0.0	 297.0; % COW
	565	 48.25	 -65.0	 39.0	 -169.0	 1.0	 63.02	 1	 78	 18.5	 0.0	 0.0	 0.0	 0.0	 0.0	 0.0	 0.0	 0.0	 0.0	 0.0	 65.0; % PEL
	565	 0.0	 0.0	 16.0	 -16.0	 1.0	 30.0	 0	 31	 5.0	 0.0	 0.0	 0.0	 0.0	 0.0	 0.0	 0.0	 0.0	 0.0	 0.0	 30.0; % NG
	565	 0.0	 0.0	 132.0	 -132.0	 1.0	 105.0	 0	 264	 25.0	 0.0	 0.0	 0.0	 0.0	 0.0	 0.0	 0.0	 0.0	 0.0	 0.0	 105.0; % NG
	565	 64.0	 -47.0	 85.0	 -179.0	 1.0	 105.0	 1	 103	 25.0	 0.0	 0.0	 0.0	 0.0	 0.0	 0.0	 0.0	 0.0	 0.0	 0.0	 105.0; % NG
	599	 209.25	 0.0	 176.0	 -176.0	 1.0	 249.58	 1	 351	 67.5	 0.0	 0.0	 0.0	 0.0	 0.0	 0.0	 0.0	 0.0	 0.0	 0.0	 256.25; % NG
	600	 0.0	 0.0	 111.0	 -111.0	 1.0	 225.0	 0	 222	 55.0	 0.0	 0.0	 0.0	 0.0	 0.0	 0.0	 0.0	 0.0	 0.0	 0.0	 225.0; % COW
	603	 0.0	 0.0	 56.67	 -56.67	 1.0	 170.0	 0	 37	 33.0	 0.0	 0.0	 0.0	 0.0	 0.0	 0.0	 0.0	 0.0	 0.0	 0.0	 170.0; % NG
	603	 0.0	 0.0	 20.33	 -20.33	 1.0	 61.0	 0	 8	 34.0	 0.0	 0.0	 0.0	 0.0	 0.0	 0.0	 0.0	 0.0	 0.0	 0.0	 61.0; % NG
	605	 0.0	 0.0	 32.0	 -32.0	 1.0	 21.0	 0	 64	 0.0	 0.0	 0.0	 0.0	 0.0	 0.0	 0.0	 0.0	 0.0	 0.0	 0.0	 21.0; % NG
	624	 118.785	 36.5	 185.0	 -112.0	 1.0	 100.0	 1	 223	 14.57	 0.0	 0.0	 0.0	 0.0	 0.0	 0.0	 0.0	 0.0	 0.0	 0.0	 96.995; % NG
	627	 0.0	 0.0	 63.0	 -63.0	 1.0	 2.0	 0	 126	 0.5	 0.0	 0.0	 0.0	 0.0	 0.0	 0.0	 0.0	 0.0	 0.0	 0.0	 280.0; % NG
	627	 54.095	 72.5	 195.0	 -50.0	 1.0	 100.0	 1	 100	 8.19	 0.0	 0.0	 0.0	 0.0	 0.0	 0.0	 0.0	 0.0	 0.0	 0.0	 48.183; % NG
	630	 0.0	 0.0	 86.0	 -86.0	 1.0	 36.0	 0	 172	 0.0	 0.0	 0.0	 0.0	 0.0	 0.0	 0.0	 0.0	 0.0	 0.0	 0.0	 36.0; % NG
	632	 0.0	 0.0	 121.0	 -121.0	 1.0	 3.0	 0	 241	 1.0	 0.0	 0.0	 0.0	 0.0	 0.0	 0.0	 0.0	 0.0	 0.0	 0.0	 295.0; % NG
	635	 0.0	 0.0	 90.0	 -90.0	 1.0	 100.0	 0	 179	 1.56	 0.0	 0.0	 0.0	 0.0	 0.0	 0.0	 0.0	 0.0	 0.0	 0.0	 255.0; % COW
	638	 0.0	 0.0	 33.33	 -33.33	 1.0	 100.0	 0	 17	 5.13	 0.0	 0.0	 0.0	 0.0	 0.0	 0.0	 0.0	 0.0	 0.0	 0.0	 25.259; % PEL
	640	 0.0	 0.0	 33.33	 -33.33	 1.0	 100.0	 0	 58	 1.82	 0.0	 0.0	 0.0	 0.0	 0.0	 0.0	 0.0	 0.0	 0.0	 0.0	 295.0; % NG
	649	 0.0	 0.0	 13.0	 -13.0	 1.0	 6.0	 0	 26	 0.5	 0.0	 0.0	 0.0	 0.0	 0.0	 0.0	 0.0	 0.0	 0.0	 0.0	 283.0; % NG
	651	 0.0	 0.0	 41.0	 -41.0	 1.0	 100.0	 0	 82	 1.77	 0.0	 0.0	 0.0	 0.0	 0.0	 0.0	 0.0	 0.0	 0.0	 0.0	 269.0; % NG
	667	 299.0	 0.0	 272.0	 -272.0	 1.0	 157.0	 1	 544	 54.0	 0.0	 0.0	 0.0	 0.0	 0.0	 0.0	 0.0	 0.0	 0.0	 0.0	 150.0; % COW
	668	 211.5	 0.0	 212.0	 -212.0	 1.0	 112.0	 1	 423	 0.0	 0.0	 0.0	 0.0	 0.0	 0.0	 0.0	 0.0	 0.0	 0.0	 0.0	 112.0; % COW
	669	 226.9	 0.0	 272.4	 -272.4	 1.0	 100.0	 1	 389	 64.8	 0.0	 0.0	 0.0	 0.0	 0.0	 0.0	 0.0	 0.0	 0.0	 0.0	 194.4; % NG
	675	 193.5	 0.0	 164.0	 -164.0	 1.0	 282.49	 1	 327	 60.0	 0.0	 0.0	 0.0	 0.0	 0.0	 0.0	 0.0	 0.0	 0.0	 0.0	 268.77; % COW
	676	 178.0	 0.0	 148.0	 -148.0	 1.0	 281.34	 1	 296	 60.0	 0.0	 0.0	 0.0	 0.0	 0.0	 0.0	 0.0	 0.0	 0.0	 0.0	 268.75; % NG
	677	 141.25	 0.0	 388.8	 -388.8	 1.0	 252.98	 1	 215	 67.5	 0.0	 0.0	 0.0	 0.0	 0.0	 0.0	 0.0	 0.0	 0.0	 0.0	 256.25; % NG
	679	 0.0	 0.0	 92.0	 -92.0	 1.0	 135.0	 0	 183	 -135.0	 0.0	 0.0	 0.0	 0.0	 0.0	 0.0	 0.0	 0.0	 0.0	 0.0	 135.0; % COW
	679	 0.0	 0.0	 234.0	 -234.0	 1.0	 135.0	 0	 468	 -135.0	 0.0	 0.0	 0.0	 0.0	 0.0	 0.0	 0.0	 0.0	 0.0	 0.0	 135.0; % NG
	680	 0.0	 0.0	 45.0	 -45.0	 1.0	 135.0	 0	 62	 -135.0	 0.0	 0.0	 0.0	 0.0	 0.0	 0.0	 0.0	 0.0	 0.0	 0.0	 135.0; % NG
	680	 0.0	 0.0	 102.0	 -102.0	 1.0	 135.0	 0	 204	 -135.0	 0.0	 0.0	 0.0	 0.0	 0.0	 0.0	 0.0	 0.0	 0.0	 0.0	 135.0; % NG
	687	 0.0	 0.0	 16.67	 -16.67	 1.0	 50.0	 0	 9	 38.0	 0.0	 0.0	 0.0	 0.0	 0.0	 0.0	 0.0	 0.0	 0.0	 0.0	 50.0; % PEL
	687	 0.0	 0.0	 16.67	 -16.67	 1.0	 50.0	 0	 7	 38.0	 0.0	 0.0	 0.0	 0.0	 0.0	 0.0	 0.0	 0.0	 0.0	 0.0	 50.0; % NG
	687	 0.0	 0.0	 16.67	 -16.67	 1.0	 50.0	 0	 16	 38.0	 0.0	 0.0	 0.0	 0.0	 0.0	 0.0	 0.0	 0.0	 0.0	 0.0	 50.0; % NG
	688	 0.0	 0.0	 16.67	 -16.67	 1.0	 50.0	 0	 20	 19.0	 0.0	 0.0	 0.0	 0.0	 0.0	 0.0	 0.0	 0.0	 0.0	 0.0	 50.0; % NG
	697	 0.0	 0.0	 33.33	 -33.33	 1.0	 100.0	 0	 42	 0.06	 0.0	 0.0	 0.0	 0.0	 0.0	 0.0	 0.0	 0.0	 0.0	 0.0	 262.0; % NG
	698	 124.0	 13.0	 120.0	 -94.0	 1.0	 273.78	 1	 188	 60.0	 0.0	 0.0	 0.0	 0.0	 0.0	 0.0	 0.0	 0.0	 0.0	 0.0	 268.75; % COW
	700	 56.6475	 0.0	 56.0	 -56.0	 1.0	 100.0	 1	 112	 1.295	 0.0	 0.0	 0.0	 0.0	 0.0	 0.0	 0.0	 0.0	 0.0	 0.0	 60.349; % NG
	704	 103.0	 0.0	 86.0	 -86.0	 1.0	 160.45	 1	 171	 35.0	 0.0	 0.0	 0.0	 0.0	 0.0	 0.0	 0.0	 0.0	 0.0	 0.0	 156.25; % NG
	704	 106.0	 0.0	 89.0	 -89.0	 1.0	 143.77	 1	 177	 35.0	 0.0	 0.0	 0.0	 0.0	 0.0	 0.0	 0.0	 0.0	 0.0	 0.0	 125.0; % NG
	726	 130.5	 5.5	 195.0	 -184.0	 1.0	 42.43	 1	 261	 0.0	 0.0	 0.0	 0.0	 0.0	 0.0	 0.0	 0.0	 0.0	 0.0	 0.0	 257.0; % NG
	727	 263.9525	 0.0	 252.0	 -252.0	 1.0	 100.0	 1	 503	 24.905	 0.0	 0.0	 0.0	 0.0	 0.0	 0.0	 0.0	 0.0	 0.0	 0.0	 121.921; % NG
	731	 0.0	 0.0	 134.0	 -134.0	 1.0	 100.0	 0	 268	 107.36	 0.0	 0.0	 0.0	 0.0	 0.0	 0.0	 0.0	 0.0	 0.0	 0.0	 229.718; % NG
	732	 0.0	 0.0	 33.33	 -33.33	 1.0	 100.0	 0	 45	 16.855	 0.0	 0.0	 0.0	 0.0	 0.0	 0.0	 0.0	 0.0	 0.0	 0.0	 48.706; % PEL
	736	 -62.5	 21.5	 105.0	 -62.0	 1.0	 216.55	 1	 75	 -200.0	 0.0	 0.0	 0.0	 0.0	 0.0	 0.0	 0.0	 0.0	 0.0	 0.0	 179.0; % NG
	736	 38.5	 0.0	 139.0	 -139.0	 1.0	 179.0	 1	 277	 -200.0	 0.0	 0.0	 0.0	 0.0	 0.0	 0.0	 0.0	 0.0	 0.0	 0.0	 179.0; % COW
...
];

%% generator cost data
%	2	startup	shutdown	n	c(n-1)	...	c0
mpc.gencost = [
	2	 0.0	 0.0	 3	   0.000000	  34.018330	   0.000000; % NG
	2	 0.0	 0.0	 3	   0.000000	  14.169489	   0.000000; % NG
	2	 0.0	 0.0	 3	   0.000000	  23.018748	   0.000000; % NG
	2	 0.0	 0.0	 3	   0.000000	  36.544528	   0.000000; % NG
	2	 0.0	 0.0	 3	   0.000000	  18.699304	   0.000000; % NG
	2	 0.0	 0.0	 3	   0.000000	  24.732738	   0.000000; % NG
	2	 0.0	 0.0	 3	   0.000000	  38.459628	   0.000000; % NG
	2	 0.0	 0.0	 3	   0.000000	  21.294905	   0.000000; % COW
	2	 0.0	 0.0	 3	   0.000000	  33.879274	   0.000000; % NG
	2	 0.0	 0.0	 3	   0.000000	  30.040749	   0.000000; % COW
	2	 0.0	 0.0	 3	   0.000000	  11.868019	   0.000000; % NG
	2	 0.0	 0.0	 3	   0.000000	  38.013323	   0.000000; % NG
	2	 0.0	 0.0	 3	   0.000000	  57.755194	   0.000000; % COW
	2	 0.0	 0.0	 3	   0.000000	  20.955397	   0.000000; % NG
	2	 0.0	 0.0	 3	   0.000000	  41.358554	   0.000000; % NG
	2	 0.0	 0.0	 3	   0.000000	  24.946092	   0.000000; % NG
	2	 0.0	 0.0	 3	   0.000000	  20.868630	   0.000000; % NG
	2	 0.0	 0.0	 3	   0.000000	  23.425268	   0.000000; % NG
	2	 0.0	 0.0	 3	   0.000000	  17.228792	   0.000000; % PEL
	2	 0.0	 0.0	 3	   0.000000	 116.659165	   0.000000; % PEL
	2	 0.0	 0.0	 3	   0.000000	  43.616773	   0.000000; % PEL
	2	 0.0	 0.0	 3	   0.000000	  31.315769	   0.000000; % COW
	2	 0.0	 0.0	 3	   0.000000	  43.013330	   0.000000; % NG
	2	 0.0	 0.0	 3	   0.000000	 118.488919	   0.000000; % NG
	2	 0.0	 0.0	 3	   0.000000	  24.946496	   0.000000; % PEL
	2	 0.0	 0.0	 3	   0.000000	  30.176601	   0.000000; % NG
	2	 0.0	 0.0	 3	   0.000000	  18.176637	   0.000000; % NG
	2	 0.0	 0.0	 3	   0.000000	  27.605738	   0.000000; % NG
	2	 0.0	 0.0	 3	   0.000000	  23.899900	   0.000000; % NG
	2	 0.0	 0.0	 3	   0.000000	  15.467216	   0.000000; % NG
	2	 0.0	 0.0	 3	   0.000000	 105.413705	   0.000000; % NG
	2	 0.0	 0.0	 3	   0.000000	 105.135197	   0.000000; % NG
	2	 0.0	 0.0	 3	   0.000000	  47.183438	   0.000000; % NG
	2	 0.0	 0.0	 3	   0.000000	  16.381577	   0.000000; % COW
	2	 0.0	 0.0	 3	   0.000000	  45.387429	   0.000000; % NG
	2	 0.0	 0.0	 3	   0.000000	  29.230218	   0.000000; % NG
	2	 0.0	 0.0	 3	   0.000000	  37.861028	   0.000000; % NG
	2	 0.0	 0.0	 3	   0.000000	  39.277503	   0.000000; % NG
	2	 0.0	 0.0	 3	   0.000000	  46.423125	   0.000000; % PEL
	2	 0.0	 0.0	 3	   0.000000	  36.942541	   0.000000; % NG
	2	 0.0	 0.0	 3	   0.000000	 100.817086	   0.000000; % PEL
	2	 0.0	 0.0	 3	   0.000000	  45.065421	   0.000000; % PEL
	2	 0.0	 0.0	 3	   0.000000	  20.009863	   0.000000; % NG
	2	 0.0	 0.0	 3	   0.000000	  27.841706	   0.000000; % PEL
	2	 0.0	 0.0	 3	   0.000000	  16.897706	   0.000000; % NG
	2	 0.0	 0.0	 3	   0.000000	  34.237697	   0.000000; % COW
	2	 0.0	 0.0	 3	   0.000000	  95.098545	   0.000000; % NG
	2	 0.0	 0.0	 3	   0.000000	   6.446180	   0.000000; % NG
	2	 0.0	 0.0	 3	   0.000000	  37.480683	   0.000000; % NG
	2	 0.0	 0.0	 3	   0.000000	  47.561033	   0.000000; % NG
	2	 0.0	 0.0	 3	   0.000000	  27.008941	   0.000000; % NG
	2	 0.0	 0.0	 3	   0.000000	  33.404921	   0.000000; % NG
	2	 0.0	 0.0	 3	   0.000000	  38.318274	   0.000000; % NG
	2	 0.0	 0.0	 3	   0.000000	 105.413929	   0.000000; % PEL
	2	 0.0	 0.0	 3	   0.000000	  42.525338	   0.000000; % PEL
	2	 0.0	 0.0	 3	   0.000000	  33.427654	   0.000000; % NG
	2	 0.0	 0.0	 3	   0.000000	 101.030008	   0.000000; % NG
	2	 0.0	 0.0	 3	   0.000000	  34.121036	   0.000000; % NG
	2	 0.0	 0.0	 3	   0.000000	  35.738304	   0.000000; % NG
	2	 0.0	 0.0	 3	   0.000000	   7.034986	   0.000000; % COW
	2	 0.0	 0.0	 3	   0.000000	  34.644063	   0.000000; % NG
	2	 0.0	 0.0	 3	   0.000000	  17.712178	   0.000000; % COW
	2	 0.0	 0.0	 3	   0.000000	  54.580014	   0.000000; % NG
	2	 0.0	 0.0	 3	   0.000000	  35.537215	   0.000000; % NG
	2	 0.0	 0.0	 3	   0.000000	  27.741251	   0.000000; % NG
	2	 0.0	 0.0	 3	   0.000000	  23.264210	   0.000000; % NG
	2	 0.0	 0.0	 3	   0.000000	  45.170915	   0.000000; % NG
	2	 0.0	 0.0	 3	   0.000000	  23.646357	   0.000000; % COW
	2	 0.0	 0.0	 3	   0.000000	  31.675463	   0.000000; % NG
	2	 0.0	 0.0	 3	   0.000000	  28.944582	   0.000000; % NG
	2	 0.0	 0.0	 3	   0.000000	  47.493790	   0.000000; % COW
	2	 0.0	 0.0	 3	   0.000000	  23.017204	   0.000000; % COW
	2	 0.0	 0.0	 3	   0.000000	  17.768797	   0.000000; % NG
	2	 0.0	 0.0	 3	   0.000000	  26.336760	   0.000000; % NG
	2	 0.0	 0.0	 3	   0.000000	  42.284317	   0.000000; % NG
	2	 0.0	 0.0	 3	   0.000000	  36.806588	   0.000000; % NG
	2	 0.0	 0.0	 3	   0.000000	  46.060103	   0.000000; % NG
	2	 0.0	 0.0	 3	   0.000000	  25.117270	   0.000000; % COW
	2	 0.0	 0.0	 3	   0.000000	  36.948013	   0.000000; % COW
	2	 0.0	 0.0	 3	   0.000000	  22.071519	   0.000000; % COW
	2	 0.0	 0.0	 3	   0.000000	  31.949820	   0.000000; % NG
	2	 0.0	 0.0	 3	   0.000000	  35.932776	   0.000000; % NG
	2	 0.0	 0.0	 3	   0.000000	  52.426528	   0.000000; % COW
	2	 0.0	 0.0	 3	   0.000000	  20.617686	   0.000000; % COW
	2	 0.0	 0.0	 3	   0.000000	  25.034441	   0.000000; % COW
	2	 0.0	 0.0	 3	   0.000000	  43.168729	   0.000000; % NG
	2	 0.0	 0.0	 3	   0.000000	  11.291275	   0.000000; % NG
	2	 0.0	 0.0	 3	   0.000000	  23.026445	   0.000000; % NG
	2	 0.0	 0.0	 3	   0.000000	  19.492604	   0.000000; % NG
	2	 0.0	 0.0	 3	   0.000000	  39.998259	   0.000000; % COW
	2	 0.0	 0.0	 3	   0.000000	  33.478323	   0.000000; % NG
	2	 0.0	 0.0	 3	   0.000000	  41.738114	   0.000000; % NG
	2	 0.0	 0.0	 3	   0.000000	  26.618034	   0.000000; % COW
	2	 0.0	 0.0	 3	   0.000000	  25.671854	   0.000000; % NG
	2	 0.0	 0.0	 3	   0.000000	  21.356345	   0.000000; % NG
	2	 0.0	 0.0	 3	   0.000000	  20.991881	   0.000000; % NG
	2	 0.0	 0.0	 3	   0.000000	  22.257707	   0.000000; % COW
	2	 0.0	 0.0	 3	   0.000000	  41.741286	   0.000000; % COW
	2	 0.0	 0.0	 3	   0.000000	  18.692814	   0.000000; % NG
	2	 0.0	 0.0	 3	   0.000000	  50.544652	   0.000000; % NG
	2	 0.0	 0.0	 3	   0.000000	  38.554260	   0.000000; % NG
	2	 0.0	 0.0	 3	   0.000000	  13.936755	   0.000000; % NG
	2	 0.0	 0.0	 3	   0.000000	  42.051636	   0.000000; % NG
	2	 0.0	 0.0	 3	   0.000000	  27.097263	   0.000000; % NG
	2	 0.0	 0.0	 3	   0.000000	 107.996893	   0.000000; % PEL
	2	 0.0	 0.0	 3	   0.000000	  34.873074	   0.000000; % PEL
	2	 0.0	 0.0	 3	   0.000000	  32.143842	   0.000000; % NG
	2	 0.0	 0.0	 3	   0.000000	  95.679030	   0.000000; % PEL
	2	 0.0	 0.0	 3	   0.000000	  51.084610	   0.000000; % NG
	2	 0.0	 0.0	 3	   0.000000	  48.375747	   0.000000; % NG
	2	 0.0	 0.0	 3	   0.000000	 135.238410	   0.000000; % NG
	2	 0.0	 0.0	 3	   0.000000	  35.389108	   0.000000; % NG
	2	 0.0	 0.0	 3	   0.000000	  18.721440	   0.000000; % NG
	2	 0.0	 0.0	 3	   0.000000	 102.244560	   0.000000; % NG
	2	 0.0	 0.0	 3	   0.000000	  44.538821	   0.000000; % NG
	2	 0.0	 0.0	 3	   0.000000	  26.674243	   0.000000; % NG
	2	 0.0	 0.0	 3	   0.000000	  97.940159	   0.000000; % NG
	2	 0.0	 0.0	 3	   0.000000	 121.327601	   0.000000; % PEL
	2	 0.0	 0.0	 3	   0.000000	  25.358864	   0.000000; % PEL
	2	 0.0	 0.0	 3	   0.000000	  34.693301	   0.000000; % NG
	2	 0.0	 0.0	 3	   0.000000	  16.200780	   0.000000; % PEL
	2	 0.0	 0.0	 3	   0.000000	  35.009557	   0.000000; % NG
	2	 0.0	 0.0	 3	   0.000000	  48.662458	   0.000000; % NG
	2	 0.0	 0.0	 3	   0.000000	  27.582743	   0.000000; % NG
	2	 0.0	 0.0	 3	   0.000000	  17.082825	   0.000000; % NG
	2	 0.0	 0.0	 3	   0.000000	  99.251941	   0.000000; % COW
	2	 0.0	 0.0	 3	   0.000000	  28.932327	   0.000000; % NG
	2	 0.0	 0.0	 3	   0.000000	  21.556969	   0.000000; % NG
	2	 0.0	 0.0	 3	   0.000000	  29.643795	   0.000000; % NG
	2	 0.0	 0.0	 3	   0.000000	  15.778189	   0.000000; % COW
	2	 0.0	 0.0	 3	   0.000000	  29.934834	   0.000000; % NG
	2	 0.0	 0.0	 3	   0.000000	  42.955993	   0.000000; % NG
	2	 0.0	 0.0	 3	   0.000000	  28.429944	   0.000000; % COW
	2	 0.0	 0.0	 3	   0.000000	  24.541088	   0.000000; % COW
	2	 0.0	 0.0	 3	   0.000000	  31.151164	   0.000000; % NG
	2	 0.0	 0.0	 3	   0.000000	  32.533861	   0.000000; % NG
	2	 0.0	 0.0	 3	   0.000000	  20.992900	   0.000000; % NG
	2	 0.0	 0.0	 3	   0.000000	  34.019176	   0.000000; % NG
	2	 0.0	 0.0	 3	   0.000000	  41.683132	   0.000000; % NG
	2	 0.0	 0.0	 3	   0.000000	  21.595456	   0.000000; % NG
	2	 0.0	 0.0	 3	   0.000000	  30.536510	   0.000000; % NG
	2	 0.0	 0.0	 3	   0.000000	  30.978552	   0.000000; % NG
	2	 0.0	 0.0	 3	   0.000000	  60.309374	   0.000000; % NG
	2	 0.0	 0.0	 3	   0.000000	  50.127172	   0.000000; % PEL
	2	 0.0	 0.0	 3	   0.000000	  23.804996	   0.000000; % NG
	2	 0.0	 0.0	 3	   0.000000	 103.888135	   0.000000; % NG
	2	 0.0	 0.0	 3	   0.000000	  16.414005	   0.000000; % PEL
	2	 0.0	 0.0	 3	   0.000000	  44.338124	   0.000000; % PEL
	2	 0.0	 0.0	 3	   0.000000	  38.483821	   0.000000; % NG
	2	 0.0	 0.0	 3	   0.000000	  27.539997	   0.000000; % NG
	2	 0.0	 0.0	 3	   0.000000	   5.764857	   0.000000; % COW
	2	 0.0	 0.0	 3	   0.000000	  24.295203	   0.000000; % PEL
	2	 0.0	 0.0	 3	   0.000000	  39.638880	   0.000000; % NG
	2	 0.0	 0.0	 3	   0.000000	 122.808844	   0.000000; % NG
	2	 0.0	 0.0	 3	   0.000000	  22.317076	   0.000000; % NG
	2	 0.0	 0.0	 3	   0.000000	  10.697315	   0.000000; % COW
	2	 0.0	 0.0	 3	   0.000000	 110.126915	   0.000000; % PEL
	2	 0.0	 0.0	 3	   0.000000	 107.099554	   0.000000; % NG
	2	 0.0	 0.0	 3	   0.000000	  11.397005	   0.000000; % NG
	2	 0.0	 0.0	 3	   0.000000	  35.388843	   0.000000; % NG
	2	 0.0	 0.0	 3	   0.000000	  32.053849	   0.000000; % NG
	2	 0.0	 0.0	 3	   0.000000	  29.252830	   0.000000; % COW
	2	 0.0	 0.0	 3	   0.000000	  11.180959	   0.000000; % NG
	2	 0.0	 0.0	 3	   0.000000	  41.375782	   0.000000; % NG
	2	 0.0	 0.0	 3	   0.000000	 114.778673	   0.000000; % NG
	2	 0.0	 0.0	 3	   0.000000	  29.540266	   0.000000; % NG
	2	 0.0	 0.0	 3	   0.000000	  21.408639	   0.000000; % NG
	2	 0.0	 0.0	 3	   0.000000	  44.554404	   0.000000; % NG
	2	 0.0	 0.0	 3	   0.000000	 118.968338	   0.000000; % NG
	2	 0.0	 0.0	 3	   0.000000	  28.786295	   0.000000; % NG
	2	 0.0	 0.0	 3	   0.000000	  29.612032	   0.000000; % COW
	2	 0.0	 0.0	 3	   0.000000	 107.498585	   0.000000; % PEL
	2	 0.0	 0.0	 3	   0.000000	  27.229507	   0.000000; % NG
	2	 0.0	 0.0	 3	   0.000000	  32.930790	   0.000000; % NG
	2	 0.0	 0.0	 3	   0.000000	  31.854830	   0.000000; % NG
	2	 0.0	 0.0	 3	   0.000000	  41.572166	   0.000000; % COW
	2	 0.0	 0.0	 3	   0.000000	  35.076258	   0.000000; % COW
	2	 0.0	 0.0	 3	   0.000000	  45.643443	   0.000000; % NG
	2	 0.0	 0.0	 3	   0.000000	  30.709151	   0.000000; % COW
	2	 0.0	 0.0	 3	   0.000000	  41.876874	   0.000000; % NG
	2	 0.0	 0.0	 3	   0.000000	  23.850696	   0.000000; % NG
	2	 0.0	 0.0	 3	   0.000000	  36.915998	   0.000000; % COW
	2	 0.0	 0.0	 3	   0.000000	   9.640348	   0.000000; % NG
	2	 0.0	 0.0	 3	   0.000000	  23.515752	   0.000000; % NG
	2	 0.0	 0.0	 3	   0.000000	  25.633430	   0.000000; % NG
	2	 0.0	 0.0	 3	   0.000000	  37.853951	   0.000000; % PEL
	2	 0.0	 0.0	 3	   0.000000	  22.043766	   0.000000; % NG
	2	 0.0	 0.0	 3	   0.000000	  31.410565	   0.000000; % NG
	2	 0.0	 0.0	 3	   0.000000	  23.715808	   0.000000; % NG
	2	 0.0	 0.0	 3	   0.000000	  37.743915	   0.000000; % NG
	2	 0.0	 0.0	 3	   0.000000	  21.492971	   0.000000; % COW
	2	 0.0	 0.0	 3	   0.000000	  63.534478	   0.000000; % NG
	2	 0.0	 0.0	 3	   0.000000	  44.427651	   0.000000; % NG
	2	 0.0	 0.0	 3	   0.000000	  31.620130	   0.000000; % NG
	2	 0.0	 0.0	 3	   0.000000	  34.107630	   0.000000; % NG
	2	 0.0	 0.0	 3	   0.000000	  23.508294	   0.000000; % NG
	2	 0.0	 0.0	 3	   0.000000	  39.861158	   0.000000; % NG
	2	 0.0	 0.0	 3	   0.000000	  36.941739	   0.000000; % PEL
	2	 0.0	 0.0	 3	   0.000000	  34.186360	   0.000000; % NG
	2	 0.0	 0.0	 3	   0.000000	  30.130740	   0.000000; % COW
...
];

%% branch data
%	fbus	tbus	r	x	b	rateA	rateB	rateC	ratio	angle	status	angmin	angmax
mpc.branch = [
	1	 2	 0.00558	 0.04147	 0.0629	 231.0	 231.0	 231.0	 0.0	 0.0	 1	 -30.0	 30.0;
	1	 2639	 0.0001	 0.01	 0.0	 224.58	 269.49	 336.87	 0.0	 0.0	 1	 -30.0	 30.0;
	2	 3	 2e-05	 0.00021	 0.0	 876.0	 876.0	 876.0	 0.0	 0.0	 1	 -30.0	 30.0;
	4	 2	 0.00059	 0.07897	 0.0	 160.0	 160.0	 160.0	 0.9999	 0.0	 1	 -30.0	 30.0;
	2	 7	 0.01262	 0.09326	 0.14324	 231.0	 231.0	 231.0	 0.0	 0.0	 1	 -30.0	 30.0;
	2	 2681	 0.0001	 0.01	 0.0	 193.09	 231.71	 289.64	 0.0	 0.0	 1	 -30.0	 30.0;
	3	 9	 0.00525	 0.03847	 0.06053	 231.0	 231.0	 231.0	 0.0	 0.0	 1	 -30.0	 30.0;
	3	 482	 0.0001	 0.01	 0.0	 134.24	 161.08	 201.35	 0.0	 0.0	 1	 -30.0	 30.0;
	41	 4	 -0.00467	 0.16067	 0.0	 260.0	 312.0	 390.0	 0.94157	 0.0	 1	 -30.0	 30.0;
	5	 12	 0.01068	 0.0475	 0.09495	 339.0	 339.0	 339.0	 0.0	 0.0	 1	 -30.0	 30.0;
	5	 946	 0.0001	 0.01	 0.0	 234.85	 281.81	 352.27	 0.0	 0.0	 1	 -30.0	 30.0;
	6	 7	 2e-05	 0.00021	 0.0	 876.0	 876.0	 876.0	 0.0	 0.0	 1	 -30.0	 30.0;
	6	 18	 0.01436	 0.10729	 0.16081	 231.0	 231.0	 231.0	 0.0	 0.0	 1	 -30.0	 30.0;
	49	 6	 0.00155	 0.06612	 0.0	 160.0	 160.0	 160.0	 1.07516	 0.0	 1	 -30.0	 30.0;
	50	 7	 0.00157	 0.06612	 0.0	 160.0	 160.0	 160.0	 1.06463	 0.0	 1	 -30.0	 30.0;
	8	 9	 2e-05	 0.00021	 0.0	 876.0	 876.0	 876.0	 0.0	 0.0	 1	 -30.0	 30.0;
	8	 15	 0.01698	 0.12459	 0.1957	 231.0	 231.0	 231.0	 0.0	 0.0	 1	 -30.0	 30.0;
	10	 11	 2e-05	 0.00021	 0.0	 876.0	 876.0	 876.0	 0.0	 0.0	 1	 -30.0	 30.0;
	10	 4562	 0.0001	 0.01	 0.0	 172.6	 207.12	 258.9	 0.0	 0.0	 1	 -30.0	 30.0;
	11	 13	 0.01298	 0.06738	 0.10284	 250.0	 250.0	 250.0	 0.0	 0.0	 1	 -30.0	 30.0;
	12	 13	 2e-05	 0.00021	 0.0	 876.0	 876.0	 876.0	 0.0	 0.0	 1	 -30.0	 30.0;
	12	 16	 0.00698	 0.0374	 0.05463	 426.89	 554.95	 554.95	 0.0	 0.0	 1	 -30.0	 30.0;
	64	 12	 0.00165	 0.0625	 0.0	 160.0	 160.0	 160.0	 1.03303	 0.0	 1	 -30.0	 30.0;
	13	 15	 0.00436	 0.03202	 0.0503	 400.0	 400.0	 400.0	 0.0	 0.0	 1	 -30.0	 30.0;
	14	 19	 0.01105	 0.08107	 0.12824	 341.0	 341.0	 341.0	 0.0	 0.0	 1	 -30.0	 30.0;
	14	 22	 0.00355	 0.02607	 0.04096	 341.0	 341.0	 341.0	 0.0	 0.0	 1	 -30.0	 30.0;
	67	 14	 0.00118	 0.06517	 0.0	 257.74	 335.07	 335.07	 1.09791	 0.0	 1	 -30.0	 30.0;
	15	 16	 2e-05	 0.00021	 0.0	 876.0	 876.0	 876.0	 0.0	 0.0	 1	 -30.0	 30.0;
	15	 19	 0.0006	 0.00351	 0.00555	 341.0	 341.0	 341.0	 0.0	 0.0	 1	 -30.0	 30.0;
	81	 15	 0.00165	 0.06851	 0.0	 261.75	 340.27	 340.27	 1.08505	 0.0	 1	 -30.0	 30.0;
	16	 18	 0.0006	 0.00351	 0.00555	 341.0	 341.0	 341.0	 0.0	 0.0	 1	 -30.0	 30.0;
	16	 23	 0.01851	 0.1088	 0.14435	 250.0	 250.0	 250.0	 0.0	 0.0	 1	 -30.0	 30.0;
	80	 16	 0.00165	 0.06851	 0.0	 160.0	 160.0	 160.0	 1.03303	 0.0	 1	 -30.0	 30.0;
	17	 22	 0.00934	 0.0539	 0.08683	 287.0	 287.0	 287.0	 0.0	 0.0	 1	 -30.0	 30.0;
	17	 923	 0.0001	 0.01	 0.0	 139.52	 167.42	 209.28	 0.0	 0.0	 1	 -30.0	 30.0;
	18	 19	 2e-05	 0.00021	 0.0	 876.0	 876.0	 876.0	 0.0	 0.0	 1	 -30.0	 30.0;
	18	 20	 0.0003	 0.02732	 0.0	 619.71	 743.65	 929.57	 1.10037	 0.0	 1	 -30.0	 30.0;
	18	 33	 0.01682	 0.08909	 0.12993	 426.87	 554.94	 554.94	 0.0	 0.0	 1	 -30.0	 30.0;
	84	 18	 0.00163	 0.07033	 0.0	 255.36	 331.97	 331.97	 1.04795	 0.0	 1	 -30.0	 30.0;
	19	 34	 0.01384	 0.08702	 0.13484	 416.82	 541.87	 541.87	 0.0	 0.0	 1	 -30.0	 30.0;
	19	 39	 0.01118	 0.06597	 0.10778	 405.98	 527.78	 527.78	 0.0	 0.0	 1	 -30.0	 30.0;
	21	 23	 0.013	 0.07589	 0.11484	 267.0	 267.0	 267.0	 0.0	 0.0	 1	 -30.0	 30.0;
	22	 23	 2e-05	 0.00021	 0.0	 876.0	 876.0	 876.0	 0.0	 0.0	 1	 -30.0	 30.0;
	22	 24	 0.00035	 0.02375	 0.0	 500.0	 500.0	 500.0	 1.08671	 0.0	 1	 -30.0	 30.0;
	22	 26	 0.00236	 0.01411	 0.02031	 229.0	 229.0	 229.0	 0.0	 0.0	 1	 -30.0	 30.0;
	23	 25	 0.01736	 0.10969	 0.16268	 287.0	 287.0	 287.0	 0.0	 0.0	 1	 -30.0	 30.0;
	87	 23	 0.00165	 0.0593	 0.0	 361.19	 433.43	 541.79	 1.10254	 0.0	 1	 -30.0	 30.0;
	87	 24	 0.00153	 0.06206	 0.0	 362.94	 435.53	 544.42	 1.10126	 0.0	 1	 -30.0	 30.0;
	24	 168	 0.00019	 0.00196	 0.06877	 831.0	 831.0	 831.0	 0.0	 0.0	 1	 -30.0	 30.0;
	24	 477	 0.0001	 0.01	 0.0	 217.91	 261.49	 326.86	 0.0	 0.0	 1	 -30.0	 30.0;
	25	 2702	 0.0001	 0.01	 0.0	 83.7	 98.6	 125.55	 0.0	 0.0	 1	 -30.0	 30.0;
	27	 34	 0.00186	 0.02155	 0.05317	 461.0	 461.0	 461.0	 0.0	 0.0	 1	 -30.0	 30.0;
	102	 27	 0.00155	 0.06585	 0.0	 160.0	 160.0	 160.0	 1.08057	 0.0	 1	 -30.0	 30.0;
	28	 29	 2e-05	 0.00021	 0.0	 876.0	 876.0	 876.0	 0.0	 0.0	 1	 -30.0	 30.0;
	28	 34	 0.02738	 0.14254	 0.20047	 222.0	 222.0	 222.0	 0.0	 0.0	 1	 -30.0	 30.0;
	109	 28	 0.00015	 0.06524	 0.0	 160.0	 160.0	 160.0	 1.07325	 0.0	 1	 -30.0	 30.0;
	30	 31	 2e-05	 0.00021	 0.0	 876.0	 876.0	 876.0	 0.0	 0.0	 1	 -30.0	 30.0;
	30	 32	 0.00033	 0.02711	 0.0	 500.0	 500.0	 500.0	 1.08613	 0.0	 1	 -30.0	 30.0;
	30	 37	 0.00556	 0.04198	 0.06158	 231.0	 231.0	 231.0	 0.0	 0.0	 1	 -30.0	 30.0;
	112	 30	 0.00163	 0.06671	 0.0	 160.0	 160.0	 160.0	 1.06463	 0.0	 1	 -30.0	 30.0;
...